
---------- Begin Simulation Statistics ----------
final_tick                                 4972271500                       # Number of ticks from beginning of simulation (restored from checkpoints and never reset)
host_inst_rate                                 116578                       # Simulator instruction rate (inst/s)
host_mem_usage                                 839840                       # Number of bytes of host memory used
host_op_rate                                   116590                       # Simulator op (including micro ops) rate (op/s)
host_seconds                                   173.21                       # Real time elapsed on the host
host_tick_rate                               28706203                       # Simulator tick rate (ticks/s)
sim_freq                                 1000000000000                       # Frequency of simulated ticks
sim_insts                                    20192793                       # Number of instructions simulated
sim_ops                                      20194858                       # Number of ops (including micro ops) simulated
sim_seconds                                  0.004972                       # Number of seconds simulated
sim_ticks                                  4972271500                       # Number of ticks simulated
system.clk_domain.clock                          1000                       # Clock period in ticks
system.cpu.branchPred.BTBCorrect                    0                       # Number of correct BTB predictions (this stat may not work properly.
system.cpu.branchPred.BTBHitPct             87.716224                       # BTB Hit Percentage
system.cpu.branchPred.BTBHits                 1445309                       # Number of BTB hits
system.cpu.branchPred.BTBLookups              1647710                       # Number of BTB lookups
system.cpu.branchPred.RASInCorrect                 92                       # Number of incorrect RAS predictions.
system.cpu.branchPred.condIncorrect               888                       # Number of conditional branches incorrect
system.cpu.branchPred.condPredicted           2260118                       # Number of conditional branches predicted
system.cpu.branchPred.indirectHits                 37                       # Number of indirect target hits.
system.cpu.branchPred.indirectLookups             232                       # Number of indirect predictor lookups.
system.cpu.branchPred.indirectMisses              195                       # Number of indirect misses.
system.cpu.branchPred.lookups                 3361935                       # Number of BP lookups
system.cpu.branchPred.usedRAS                  500707                       # Number of times the RAS was used to get a target.
system.cpu.branchPredindirectMispredicted          100                       # Number of mispredicted indirect branches.
system.cpu.cc_regfile_reads                  69004377                       # number of cc regfile reads
system.cpu.cc_regfile_writes                 11988848                       # number of cc regfile writes
system.cpu.commit.amos                              0                       # Number of atomic instructions committed
system.cpu.commit.branchMispredicts               641                       # The number of times a branch was mispredicted
system.cpu.commit.branches                    3358697                       # Number of branches committed
system.cpu.commit.bw_lim_events                   262                       # number cycles where commit BW limit reached
system.cpu.commit.commitNonSpecStalls              46                       # The number of times commit has been forced to stall to communicate backwards
system.cpu.commit.commitSquashedInsts            6777                       # The number of squashed insts skipped by commit
system.cpu.commit.committedInsts             20192793                       # Number of instructions committed
system.cpu.commit.committedOps               20194858                       # Number of ops (including micro ops) committed
system.cpu.commit.committed_per_cycle::samples      9900464                       # Number of insts commited each cycle
system.cpu.commit.committed_per_cycle::mean     2.039789                       # Number of insts commited each cycle
system.cpu.commit.committed_per_cycle::stdev     1.546448                       # Number of insts commited each cycle
system.cpu.commit.committed_per_cycle::underflows            0      0.00%      0.00% # Number of insts commited each cycle
system.cpu.commit.committed_per_cycle::0       859173      8.68%      8.68% # Number of insts commited each cycle
system.cpu.commit.committed_per_cycle::1      4139836     41.81%     50.49% # Number of insts commited each cycle
system.cpu.commit.committed_per_cycle::2      1605416     16.22%     66.71% # Number of insts commited each cycle
system.cpu.commit.committed_per_cycle::3      1513827     15.29%     82.00% # Number of insts commited each cycle
system.cpu.commit.committed_per_cycle::4      1209538     12.22%     94.22% # Number of insts commited each cycle
system.cpu.commit.committed_per_cycle::5       172109      1.74%     95.95% # Number of insts commited each cycle
system.cpu.commit.committed_per_cycle::6       200205      2.02%     97.98% # Number of insts commited each cycle
system.cpu.commit.committed_per_cycle::7       200098      2.02%    100.00% # Number of insts commited each cycle
system.cpu.commit.committed_per_cycle::8          262      0.00%    100.00% # Number of insts commited each cycle
system.cpu.commit.committed_per_cycle::overflows            0      0.00%    100.00% # Number of insts commited each cycle
system.cpu.commit.committed_per_cycle::min_value            0                       # Number of insts commited each cycle
system.cpu.commit.committed_per_cycle::max_value            8                       # Number of insts commited each cycle
system.cpu.commit.committed_per_cycle::total      9900464                       # Number of insts commited each cycle
system.cpu.commit.fp_insts                          0                       # Number of committed floating point instructions.
system.cpu.commit.function_calls               500260                       # Number of function calls committed.
system.cpu.commit.int_insts                  18236846                       # Number of committed integer instructions.
system.cpu.commit.loads                       2802484                       # Number of loads committed
system.cpu.commit.membars                          18                       # Number of memory barriers committed
system.cpu.commit.op_class_0::No_OpClass            0      0.00%      0.00% # Class of committed instruction
system.cpu.commit.op_class_0::IntAlu         16690152     82.65%     82.65% # Class of committed instruction
system.cpu.commit.op_class_0::IntMult              60      0.00%     82.65% # Class of committed instruction
system.cpu.commit.op_class_0::IntDiv                0      0.00%     82.65% # Class of committed instruction
system.cpu.commit.op_class_0::FloatAdd              0      0.00%     82.65% # Class of committed instruction
system.cpu.commit.op_class_0::FloatCmp              0      0.00%     82.65% # Class of committed instruction
system.cpu.commit.op_class_0::FloatCvt              0      0.00%     82.65% # Class of committed instruction
system.cpu.commit.op_class_0::FloatMult             0      0.00%     82.65% # Class of committed instruction
system.cpu.commit.op_class_0::FloatMultAcc            0      0.00%     82.65% # Class of committed instruction
system.cpu.commit.op_class_0::FloatDiv              0      0.00%     82.65% # Class of committed instruction
system.cpu.commit.op_class_0::FloatMisc             0      0.00%     82.65% # Class of committed instruction
system.cpu.commit.op_class_0::FloatSqrt             0      0.00%     82.65% # Class of committed instruction
system.cpu.commit.op_class_0::SimdAdd               0      0.00%     82.65% # Class of committed instruction
system.cpu.commit.op_class_0::SimdAddAcc            0      0.00%     82.65% # Class of committed instruction
system.cpu.commit.op_class_0::SimdAlu               0      0.00%     82.65% # Class of committed instruction
system.cpu.commit.op_class_0::SimdCmp               0      0.00%     82.65% # Class of committed instruction
system.cpu.commit.op_class_0::SimdCvt               0      0.00%     82.65% # Class of committed instruction
system.cpu.commit.op_class_0::SimdMisc              0      0.00%     82.65% # Class of committed instruction
system.cpu.commit.op_class_0::SimdMult              0      0.00%     82.65% # Class of committed instruction
system.cpu.commit.op_class_0::SimdMultAcc            0      0.00%     82.65% # Class of committed instruction
system.cpu.commit.op_class_0::SimdShift             0      0.00%     82.65% # Class of committed instruction
system.cpu.commit.op_class_0::SimdShiftAcc            0      0.00%     82.65% # Class of committed instruction
system.cpu.commit.op_class_0::SimdDiv               0      0.00%     82.65% # Class of committed instruction
system.cpu.commit.op_class_0::SimdSqrt              0      0.00%     82.65% # Class of committed instruction
system.cpu.commit.op_class_0::SimdFloatAdd            0      0.00%     82.65% # Class of committed instruction
system.cpu.commit.op_class_0::SimdFloatAlu            0      0.00%     82.65% # Class of committed instruction
system.cpu.commit.op_class_0::SimdFloatCmp            0      0.00%     82.65% # Class of committed instruction
system.cpu.commit.op_class_0::SimdFloatCvt            0      0.00%     82.65% # Class of committed instruction
system.cpu.commit.op_class_0::SimdFloatDiv            0      0.00%     82.65% # Class of committed instruction
system.cpu.commit.op_class_0::SimdFloatMisc            1      0.00%     82.65% # Class of committed instruction
system.cpu.commit.op_class_0::SimdFloatMult            0      0.00%     82.65% # Class of committed instruction
system.cpu.commit.op_class_0::SimdFloatMultAcc            0      0.00%     82.65% # Class of committed instruction
system.cpu.commit.op_class_0::SimdFloatSqrt            0      0.00%     82.65% # Class of committed instruction
system.cpu.commit.op_class_0::SimdReduceAdd            0      0.00%     82.65% # Class of committed instruction
system.cpu.commit.op_class_0::SimdReduceAlu            0      0.00%     82.65% # Class of committed instruction
system.cpu.commit.op_class_0::SimdReduceCmp            0      0.00%     82.65% # Class of committed instruction
system.cpu.commit.op_class_0::SimdFloatReduceAdd            0      0.00%     82.65% # Class of committed instruction
system.cpu.commit.op_class_0::SimdFloatReduceCmp            0      0.00%     82.65% # Class of committed instruction
system.cpu.commit.op_class_0::SimdAes               0      0.00%     82.65% # Class of committed instruction
system.cpu.commit.op_class_0::SimdAesMix            0      0.00%     82.65% # Class of committed instruction
system.cpu.commit.op_class_0::SimdSha1Hash            0      0.00%     82.65% # Class of committed instruction
system.cpu.commit.op_class_0::SimdSha1Hash2            0      0.00%     82.65% # Class of committed instruction
system.cpu.commit.op_class_0::SimdSha256Hash            0      0.00%     82.65% # Class of committed instruction
system.cpu.commit.op_class_0::SimdSha256Hash2            0      0.00%     82.65% # Class of committed instruction
system.cpu.commit.op_class_0::SimdShaSigma2            0      0.00%     82.65% # Class of committed instruction
system.cpu.commit.op_class_0::SimdShaSigma3            0      0.00%     82.65% # Class of committed instruction
system.cpu.commit.op_class_0::SimdPredAlu            0      0.00%     82.65% # Class of committed instruction
system.cpu.commit.op_class_0::MemRead         2802484     13.88%     96.52% # Class of committed instruction
system.cpu.commit.op_class_0::MemWrite         702161      3.48%    100.00% # Class of committed instruction
system.cpu.commit.op_class_0::FloatMemRead            0      0.00%    100.00% # Class of committed instruction
system.cpu.commit.op_class_0::FloatMemWrite            0      0.00%    100.00% # Class of committed instruction
system.cpu.commit.op_class_0::IprAccess             0      0.00%    100.00% # Class of committed instruction
system.cpu.commit.op_class_0::InstPrefetch            0      0.00%    100.00% # Class of committed instruction
system.cpu.commit.op_class_0::total          20194858                       # Class of committed instruction
system.cpu.commit.refs                        3504645                       # Number of memory references committed
system.cpu.commit.swp_count                         0                       # Number of s/w prefetches committed
system.cpu.commit.vec_insts                         0                       # Number of committed Vector instructions.
system.cpu.committedInsts                    20192793                       # Number of Instructions Simulated
system.cpu.committedOps                      20194858                       # Number of Ops (including micro ops) Simulated
system.cpu.cpi                               0.492480                       # CPI: Cycles Per Instruction
system.cpu.cpi_total                         0.492480                       # CPI: Total CPI of All Threads
system.cpu.dcache.LoadLockedReq_accesses::.cpu.data           18                       # number of LoadLockedReq accesses(hits+misses)
system.cpu.dcache.LoadLockedReq_accesses::total           18                       # number of LoadLockedReq accesses(hits+misses)
system.cpu.dcache.LoadLockedReq_avg_miss_latency::.cpu.data        10500                       # average LoadLockedReq miss latency
system.cpu.dcache.LoadLockedReq_avg_miss_latency::total        10500                       # average LoadLockedReq miss latency
system.cpu.dcache.LoadLockedReq_hits::.cpu.data           17                       # number of LoadLockedReq hits
system.cpu.dcache.LoadLockedReq_hits::total           17                       # number of LoadLockedReq hits
system.cpu.dcache.LoadLockedReq_miss_latency::.cpu.data        10500                       # number of LoadLockedReq miss cycles
system.cpu.dcache.LoadLockedReq_miss_latency::total        10500                       # number of LoadLockedReq miss cycles
system.cpu.dcache.LoadLockedReq_miss_rate::.cpu.data     0.055556                       # miss rate for LoadLockedReq accesses
system.cpu.dcache.LoadLockedReq_miss_rate::total     0.055556                       # miss rate for LoadLockedReq accesses
system.cpu.dcache.LoadLockedReq_misses::.cpu.data            1                       # number of LoadLockedReq misses
system.cpu.dcache.LoadLockedReq_misses::total            1                       # number of LoadLockedReq misses
system.cpu.dcache.LoadLockedReq_mshr_hits::.cpu.data            1                       # number of LoadLockedReq MSHR hits
system.cpu.dcache.LoadLockedReq_mshr_hits::total            1                       # number of LoadLockedReq MSHR hits
system.cpu.dcache.ReadReq_accesses::.cpu.data      2103158                       # number of ReadReq accesses(hits+misses)
system.cpu.dcache.ReadReq_accesses::total      2103158                       # number of ReadReq accesses(hits+misses)
system.cpu.dcache.ReadReq_avg_miss_latency::.cpu.data 13759.988450                       # average ReadReq miss latency
system.cpu.dcache.ReadReq_avg_miss_latency::total 13759.988450                       # average ReadReq miss latency
system.cpu.dcache.ReadReq_avg_mshr_miss_latency::.cpu.data 12488.611140                       # average ReadReq mshr miss latency
system.cpu.dcache.ReadReq_avg_mshr_miss_latency::total 12488.611140                       # average ReadReq mshr miss latency
system.cpu.dcache.ReadReq_hits::.cpu.data      2084111                       # number of ReadReq hits
system.cpu.dcache.ReadReq_hits::total         2084111                       # number of ReadReq hits
system.cpu.dcache.ReadReq_miss_latency::.cpu.data    262086500                       # number of ReadReq miss cycles
system.cpu.dcache.ReadReq_miss_latency::total    262086500                       # number of ReadReq miss cycles
system.cpu.dcache.ReadReq_miss_rate::.cpu.data     0.009056                       # miss rate for ReadReq accesses
system.cpu.dcache.ReadReq_miss_rate::total     0.009056                       # miss rate for ReadReq accesses
system.cpu.dcache.ReadReq_misses::.cpu.data        19047                       # number of ReadReq misses
system.cpu.dcache.ReadReq_misses::total         19047                       # number of ReadReq misses
system.cpu.dcache.ReadReq_mshr_hits::.cpu.data          125                       # number of ReadReq MSHR hits
system.cpu.dcache.ReadReq_mshr_hits::total          125                       # number of ReadReq MSHR hits
system.cpu.dcache.ReadReq_mshr_miss_latency::.cpu.data    236309500                       # number of ReadReq MSHR miss cycles
system.cpu.dcache.ReadReq_mshr_miss_latency::total    236309500                       # number of ReadReq MSHR miss cycles
system.cpu.dcache.ReadReq_mshr_miss_rate::.cpu.data     0.008997                       # mshr miss rate for ReadReq accesses
system.cpu.dcache.ReadReq_mshr_miss_rate::total     0.008997                       # mshr miss rate for ReadReq accesses
system.cpu.dcache.ReadReq_mshr_misses::.cpu.data        18922                       # number of ReadReq MSHR misses
system.cpu.dcache.ReadReq_mshr_misses::total        18922                       # number of ReadReq MSHR misses
system.cpu.dcache.StoreCondReq_accesses::.cpu.data           17                       # number of StoreCondReq accesses(hits+misses)
system.cpu.dcache.StoreCondReq_accesses::total           17                       # number of StoreCondReq accesses(hits+misses)
system.cpu.dcache.StoreCondReq_hits::.cpu.data           17                       # number of StoreCondReq hits
system.cpu.dcache.StoreCondReq_hits::total           17                       # number of StoreCondReq hits
system.cpu.dcache.WriteReq_accesses::.cpu.data       702061                       # number of WriteReq accesses(hits+misses)
system.cpu.dcache.WriteReq_accesses::total       702061                       # number of WriteReq accesses(hits+misses)
system.cpu.dcache.WriteReq_avg_miss_latency::.cpu.data 53731.490176                       # average WriteReq miss latency
system.cpu.dcache.WriteReq_avg_miss_latency::total 53731.490176                       # average WriteReq miss latency
system.cpu.dcache.WriteReq_avg_mshr_miss_latency::.cpu.data 82997.851619                       # average WriteReq mshr miss latency
system.cpu.dcache.WriteReq_avg_mshr_miss_latency::total 82997.851619                       # average WriteReq mshr miss latency
system.cpu.dcache.WriteReq_hits::.cpu.data       618848                       # number of WriteReq hits
system.cpu.dcache.WriteReq_hits::total         618848                       # number of WriteReq hits
system.cpu.dcache.WriteReq_miss_latency::.cpu.data   4471158492                       # number of WriteReq miss cycles
system.cpu.dcache.WriteReq_miss_latency::total   4471158492                       # number of WriteReq miss cycles
system.cpu.dcache.WriteReq_miss_rate::.cpu.data     0.118527                       # miss rate for WriteReq accesses
system.cpu.dcache.WriteReq_miss_rate::total     0.118527                       # miss rate for WriteReq accesses
system.cpu.dcache.WriteReq_misses::.cpu.data        83213                       # number of WriteReq misses
system.cpu.dcache.WriteReq_misses::total        83213                       # number of WriteReq misses
system.cpu.dcache.WriteReq_mshr_hits::.cpu.data        70644                       # number of WriteReq MSHR hits
system.cpu.dcache.WriteReq_mshr_hits::total        70644                       # number of WriteReq MSHR hits
system.cpu.dcache.WriteReq_mshr_miss_latency::.cpu.data   1043199997                       # number of WriteReq MSHR miss cycles
system.cpu.dcache.WriteReq_mshr_miss_latency::total   1043199997                       # number of WriteReq MSHR miss cycles
system.cpu.dcache.WriteReq_mshr_miss_rate::.cpu.data     0.017903                       # mshr miss rate for WriteReq accesses
system.cpu.dcache.WriteReq_mshr_miss_rate::total     0.017903                       # mshr miss rate for WriteReq accesses
system.cpu.dcache.WriteReq_mshr_misses::.cpu.data        12569                       # number of WriteReq MSHR misses
system.cpu.dcache.WriteReq_mshr_misses::total        12569                       # number of WriteReq MSHR misses
system.cpu.dcache.avg_blocked_cycles::no_mshrs    37.562500                       # average number of cycles each access was blocked
system.cpu.dcache.avg_blocked_cycles::no_targets          nan                       # average number of cycles each access was blocked
system.cpu.dcache.blocked::no_mshrs                16                       # number of cycles access was blocked
system.cpu.dcache.blocked::no_targets               0                       # number of cycles access was blocked
system.cpu.dcache.blocked_cycles::no_mshrs          601                       # number of cycles access was blocked
system.cpu.dcache.blocked_cycles::no_targets            0                       # number of cycles access was blocked
system.cpu.dcache.demand_accesses::.cpu.data      2805219                       # number of demand (read+write) accesses
system.cpu.dcache.demand_accesses::total      2805219                       # number of demand (read+write) accesses
system.cpu.dcache.demand_avg_miss_latency::.cpu.data 46286.377782                       # average overall miss latency
system.cpu.dcache.demand_avg_miss_latency::total 46286.377782                       # average overall miss latency
system.cpu.dcache.demand_avg_mshr_miss_latency::.cpu.data 40630.957956                       # average overall mshr miss latency
system.cpu.dcache.demand_avg_mshr_miss_latency::total 40630.957956                       # average overall mshr miss latency
system.cpu.dcache.demand_hits::.cpu.data      2702959                       # number of demand (read+write) hits
system.cpu.dcache.demand_hits::total          2702959                       # number of demand (read+write) hits
system.cpu.dcache.demand_miss_latency::.cpu.data   4733244992                       # number of demand (read+write) miss cycles
system.cpu.dcache.demand_miss_latency::total   4733244992                       # number of demand (read+write) miss cycles
system.cpu.dcache.demand_miss_rate::.cpu.data     0.036453                       # miss rate for demand accesses
system.cpu.dcache.demand_miss_rate::total     0.036453                       # miss rate for demand accesses
system.cpu.dcache.demand_misses::.cpu.data       102260                       # number of demand (read+write) misses
system.cpu.dcache.demand_misses::total         102260                       # number of demand (read+write) misses
system.cpu.dcache.demand_mshr_hits::.cpu.data        70769                       # number of demand (read+write) MSHR hits
system.cpu.dcache.demand_mshr_hits::total        70769                       # number of demand (read+write) MSHR hits
system.cpu.dcache.demand_mshr_miss_latency::.cpu.data   1279509497                       # number of demand (read+write) MSHR miss cycles
system.cpu.dcache.demand_mshr_miss_latency::total   1279509497                       # number of demand (read+write) MSHR miss cycles
system.cpu.dcache.demand_mshr_miss_rate::.cpu.data     0.011226                       # mshr miss rate for demand accesses
system.cpu.dcache.demand_mshr_miss_rate::total     0.011226                       # mshr miss rate for demand accesses
system.cpu.dcache.demand_mshr_misses::.cpu.data        31491                       # number of demand (read+write) MSHR misses
system.cpu.dcache.demand_mshr_misses::total        31491                       # number of demand (read+write) MSHR misses
system.cpu.dcache.overall_accesses::.cpu.data      2805219                       # number of overall (read+write) accesses
system.cpu.dcache.overall_accesses::total      2805219                       # number of overall (read+write) accesses
system.cpu.dcache.overall_avg_miss_latency::.cpu.data 46286.377782                       # average overall miss latency
system.cpu.dcache.overall_avg_miss_latency::total 46286.377782                       # average overall miss latency
system.cpu.dcache.overall_avg_mshr_miss_latency::.cpu.data 40630.957956                       # average overall mshr miss latency
system.cpu.dcache.overall_avg_mshr_miss_latency::total 40630.957956                       # average overall mshr miss latency
system.cpu.dcache.overall_hits::.cpu.data      2702959                       # number of overall hits
system.cpu.dcache.overall_hits::total         2702959                       # number of overall hits
system.cpu.dcache.overall_miss_latency::.cpu.data   4733244992                       # number of overall miss cycles
system.cpu.dcache.overall_miss_latency::total   4733244992                       # number of overall miss cycles
system.cpu.dcache.overall_miss_rate::.cpu.data     0.036453                       # miss rate for overall accesses
system.cpu.dcache.overall_miss_rate::total     0.036453                       # miss rate for overall accesses
system.cpu.dcache.overall_misses::.cpu.data       102260                       # number of overall misses
system.cpu.dcache.overall_misses::total        102260                       # number of overall misses
system.cpu.dcache.overall_mshr_hits::.cpu.data        70769                       # number of overall MSHR hits
system.cpu.dcache.overall_mshr_hits::total        70769                       # number of overall MSHR hits
system.cpu.dcache.overall_mshr_miss_latency::.cpu.data   1279509497                       # number of overall MSHR miss cycles
system.cpu.dcache.overall_mshr_miss_latency::total   1279509497                       # number of overall MSHR miss cycles
system.cpu.dcache.overall_mshr_miss_rate::.cpu.data     0.011226                       # mshr miss rate for overall accesses
system.cpu.dcache.overall_mshr_miss_rate::total     0.011226                       # mshr miss rate for overall accesses
system.cpu.dcache.overall_mshr_misses::.cpu.data        31491                       # number of overall MSHR misses
system.cpu.dcache.overall_mshr_misses::total        31491                       # number of overall MSHR misses
system.cpu.dcache.pwrStateResidencyTicks::UNDEFINED   4972271500                       # Cumulative time (in ticks) in various power states
system.cpu.dcache.replacements                  30467                       # number of replacements
system.cpu.dcache.tags.age_task_id_blocks_1024::0           49                       # Occupied blocks per task id
system.cpu.dcache.tags.age_task_id_blocks_1024::1          415                       # Occupied blocks per task id
system.cpu.dcache.tags.age_task_id_blocks_1024::2          558                       # Occupied blocks per task id
system.cpu.dcache.tags.age_task_id_blocks_1024::3            2                       # Occupied blocks per task id
system.cpu.dcache.tags.avg_refs             86.833826                       # Average number of references to valid blocks.
system.cpu.dcache.tags.data_accesses          5641999                       # Number of data accesses
system.cpu.dcache.tags.occ_blocks::.cpu.data  1012.349082                       # Average occupied blocks per requestor
system.cpu.dcache.tags.occ_percent::.cpu.data     0.988622                       # Average percentage of cache occupancy
system.cpu.dcache.tags.occ_percent::total     0.988622                       # Average percentage of cache occupancy
system.cpu.dcache.tags.occ_task_id_blocks::1024         1024                       # Occupied blocks per task id
system.cpu.dcache.tags.occ_task_id_percent::1024            1                       # Percentage of cache occupancy per task id
system.cpu.dcache.tags.pwrStateResidencyTicks::UNDEFINED   4972271500                       # Cumulative time (in ticks) in various power states
system.cpu.dcache.tags.sampled_refs             31491                       # Sample count of references to valid blocks.
system.cpu.dcache.tags.tag_accesses           5641999                       # Number of tag accesses
system.cpu.dcache.tags.tagsinuse          1012.349082                       # Cycle average of tags in use
system.cpu.dcache.tags.total_refs             2734484                       # Total number of references to valid blocks.
system.cpu.dcache.tags.warmup_cycle            105000                       # Cycle when the warmup percentage was hit.
system.cpu.dcache.writebacks::.writebacks        30389                       # number of writebacks
system.cpu.dcache.writebacks::total             30389                       # number of writebacks
system.cpu.decode.BlockedCycles               6502084                       # Number of cycles decode is blocked
system.cpu.decode.BranchMispred                   259                       # Number of times decode detected a branch misprediction
system.cpu.decode.BranchResolved              1445209                       # Number of times decode resolved a branch
system.cpu.decode.DecodedInsts               20205777                       # Number of instructions handled by decode
system.cpu.decode.IdleCycles                   871633                       # Number of cycles decode is idle
system.cpu.decode.RunCycles                    176481                       # Number of cycles decode is running
system.cpu.decode.SquashCycles                    684                       # Number of cycles decode is squashing
system.cpu.decode.SquashedInsts                   917                       # Number of squashed instructions handled by decode
system.cpu.decode.UnblockCycles               2350798                       # Number of cycles decode is unblocking
system.cpu.dstage2_mmu.stage2_tlb.accesses            0                       # DTB accesses
system.cpu.dstage2_mmu.stage2_tlb.align_faults            0                       # Number of TLB faults due to alignment restrictions
system.cpu.dstage2_mmu.stage2_tlb.domain_faults            0                       # Number of TLB faults due to domain restrictions
system.cpu.dstage2_mmu.stage2_tlb.flush_entries            0                       # Number of entries that have been flushed from TLB
system.cpu.dstage2_mmu.stage2_tlb.flush_tlb            0                       # Number of times complete TLB was flushed
system.cpu.dstage2_mmu.stage2_tlb.flush_tlb_asid            0                       # Number of times TLB was flushed by ASID
system.cpu.dstage2_mmu.stage2_tlb.flush_tlb_mva            0                       # Number of times TLB was flushed by MVA
system.cpu.dstage2_mmu.stage2_tlb.flush_tlb_mva_asid            0                       # Number of times TLB was flushed by MVA & ASID
system.cpu.dstage2_mmu.stage2_tlb.hits              0                       # DTB hits
system.cpu.dstage2_mmu.stage2_tlb.inst_accesses            0                       # ITB inst accesses
system.cpu.dstage2_mmu.stage2_tlb.inst_hits            0                       # ITB inst hits
system.cpu.dstage2_mmu.stage2_tlb.inst_misses            0                       # ITB inst misses
system.cpu.dstage2_mmu.stage2_tlb.misses            0                       # DTB misses
system.cpu.dstage2_mmu.stage2_tlb.perms_faults            0                       # Number of TLB faults due to permissions restrictions
system.cpu.dstage2_mmu.stage2_tlb.prefetch_faults            0                       # Number of TLB faults due to prefetch
system.cpu.dstage2_mmu.stage2_tlb.read_accesses            0                       # DTB read accesses
system.cpu.dstage2_mmu.stage2_tlb.read_hits            0                       # DTB read hits
system.cpu.dstage2_mmu.stage2_tlb.read_misses            0                       # DTB read misses
system.cpu.dstage2_mmu.stage2_tlb.walker.pwrStateResidencyTicks::UNDEFINED   4972271500                       # Cumulative time (in ticks) in various power states
system.cpu.dstage2_mmu.stage2_tlb.walker.walkRequestOrigin_Requested::Data            0                       # Table walker requests started/completed, data/inst
system.cpu.dstage2_mmu.stage2_tlb.walker.walkRequestOrigin_Requested::Inst            0                       # Table walker requests started/completed, data/inst
system.cpu.dstage2_mmu.stage2_tlb.walker.walkRequestOrigin_Requested::total            0                       # Table walker requests started/completed, data/inst
system.cpu.dstage2_mmu.stage2_tlb.walker.walkRequestOrigin_Completed::Data            0                       # Table walker requests started/completed, data/inst
system.cpu.dstage2_mmu.stage2_tlb.walker.walkRequestOrigin_Completed::Inst            0                       # Table walker requests started/completed, data/inst
system.cpu.dstage2_mmu.stage2_tlb.walker.walkRequestOrigin_Completed::total            0                       # Table walker requests started/completed, data/inst
system.cpu.dstage2_mmu.stage2_tlb.walker.walkRequestOrigin::total            0                       # Table walker requests started/completed, data/inst
system.cpu.dstage2_mmu.stage2_tlb.walker.walks            0                       # Table walker walks requested
system.cpu.dstage2_mmu.stage2_tlb.write_accesses            0                       # DTB write accesses
system.cpu.dstage2_mmu.stage2_tlb.write_hits            0                       # DTB write hits
system.cpu.dstage2_mmu.stage2_tlb.write_misses            0                       # DTB write misses
system.cpu.dtb.accesses                             0                       # DTB accesses
system.cpu.dtb.align_faults                         0                       # Number of TLB faults due to alignment restrictions
system.cpu.dtb.domain_faults                        0                       # Number of TLB faults due to domain restrictions
system.cpu.dtb.flush_entries                        0                       # Number of entries that have been flushed from TLB
system.cpu.dtb.flush_tlb                            0                       # Number of times complete TLB was flushed
system.cpu.dtb.flush_tlb_asid                       0                       # Number of times TLB was flushed by ASID
system.cpu.dtb.flush_tlb_mva                        0                       # Number of times TLB was flushed by MVA
system.cpu.dtb.flush_tlb_mva_asid                   0                       # Number of times TLB was flushed by MVA & ASID
system.cpu.dtb.hits                                 0                       # DTB hits
system.cpu.dtb.inst_accesses                        0                       # ITB inst accesses
system.cpu.dtb.inst_hits                            0                       # ITB inst hits
system.cpu.dtb.inst_misses                          0                       # ITB inst misses
system.cpu.dtb.misses                               0                       # DTB misses
system.cpu.dtb.perms_faults                         0                       # Number of TLB faults due to permissions restrictions
system.cpu.dtb.prefetch_faults                      0                       # Number of TLB faults due to prefetch
system.cpu.dtb.read_accesses                        0                       # DTB read accesses
system.cpu.dtb.read_hits                            0                       # DTB read hits
system.cpu.dtb.read_misses                          0                       # DTB read misses
system.cpu.dtb.walker.pwrStateResidencyTicks::UNDEFINED   4972271500                       # Cumulative time (in ticks) in various power states
system.cpu.dtb.walker.walkRequestOrigin_Requested::Data            0                       # Table walker requests started/completed, data/inst
system.cpu.dtb.walker.walkRequestOrigin_Requested::Inst            0                       # Table walker requests started/completed, data/inst
system.cpu.dtb.walker.walkRequestOrigin_Requested::total            0                       # Table walker requests started/completed, data/inst
system.cpu.dtb.walker.walkRequestOrigin_Completed::Data            0                       # Table walker requests started/completed, data/inst
system.cpu.dtb.walker.walkRequestOrigin_Completed::Inst            0                       # Table walker requests started/completed, data/inst
system.cpu.dtb.walker.walkRequestOrigin_Completed::total            0                       # Table walker requests started/completed, data/inst
system.cpu.dtb.walker.walkRequestOrigin::total            0                       # Table walker requests started/completed, data/inst
system.cpu.dtb.walker.walks                         0                       # Table walker walks requested
system.cpu.dtb.write_accesses                       0                       # DTB write accesses
system.cpu.dtb.write_hits                           0                       # DTB write hits
system.cpu.dtb.write_misses                         0                       # DTB write misses
system.cpu.fetch.Branches                     3361935                       # Number of branches that fetch encountered
system.cpu.fetch.CacheLines                   3004935                       # Number of cache lines fetched
system.cpu.fetch.Cycles                       6884724                       # Number of cycles fetch has run and was not squashing or blocked
system.cpu.fetch.IcacheSquashes                   583                       # Number of outstanding Icache misses that were squashed
system.cpu.fetch.IcacheWaitRetryStallCycles           43                       # Number of stall cycles due to full MSHR
system.cpu.fetch.Insts                       20210919                       # Number of instructions fetch has processed
system.cpu.fetch.MiscStallCycles                   78                       # Number of cycles fetch has spent waiting on interrupts, or bad addresses, or out of MSHRs
system.cpu.fetch.PendingTrapStallCycles           324                       # Number of stall cycles due to pending traps
system.cpu.fetch.SquashCycles                    1872                       # Number of cycles fetch has spent squashing
system.cpu.fetch.branchRate                  0.338068                       # Number of branch fetches per cycle
system.cpu.fetch.icacheStallCycles            3015575                       # Number of cycles fetch is stalled on an Icache miss
system.cpu.fetch.predictedBranches            1946053                       # Number of branches that fetch has predicted taken
system.cpu.fetch.rate                        2.032363                       # Number of inst fetches per cycle
system.cpu.fetch.rateDist::samples            9901680                       # Number of instructions fetched each cycle (Total)
system.cpu.fetch.rateDist::mean              2.041566                       # Number of instructions fetched each cycle (Total)
system.cpu.fetch.rateDist::stdev             2.724950                       # Number of instructions fetched each cycle (Total)
system.cpu.fetch.rateDist::underflows               0      0.00%      0.00% # Number of instructions fetched each cycle (Total)
system.cpu.fetch.rateDist::0                  5404325     54.58%     54.58% # Number of instructions fetched each cycle (Total)
system.cpu.fetch.rateDist::1                   552421      5.58%     60.16% # Number of instructions fetched each cycle (Total)
system.cpu.fetch.rateDist::2                   549088      5.55%     65.70% # Number of instructions fetched each cycle (Total)
system.cpu.fetch.rateDist::3                   641849      6.48%     72.19% # Number of instructions fetched each cycle (Total)
system.cpu.fetch.rateDist::4                   481926      4.87%     77.05% # Number of instructions fetched each cycle (Total)
system.cpu.fetch.rateDist::5                   610898      6.17%     83.22% # Number of instructions fetched each cycle (Total)
system.cpu.fetch.rateDist::6                   730810      7.38%     90.60% # Number of instructions fetched each cycle (Total)
system.cpu.fetch.rateDist::7                   171166      1.73%     92.33% # Number of instructions fetched each cycle (Total)
system.cpu.fetch.rateDist::8                   759197      7.67%    100.00% # Number of instructions fetched each cycle (Total)
system.cpu.fetch.rateDist::overflows                0      0.00%    100.00% # Number of instructions fetched each cycle (Total)
system.cpu.fetch.rateDist::min_value                0                       # Number of instructions fetched each cycle (Total)
system.cpu.fetch.rateDist::max_value                8                       # Number of instructions fetched each cycle (Total)
system.cpu.fetch.rateDist::total              9901680                       # Number of instructions fetched each cycle (Total)
system.cpu.icache.ReadReq_accesses::.cpu.inst      3004934                       # number of ReadReq accesses(hits+misses)
system.cpu.icache.ReadReq_accesses::total      3004934                       # number of ReadReq accesses(hits+misses)
system.cpu.icache.ReadReq_avg_miss_latency::.cpu.inst 69813.431479                       # average ReadReq miss latency
system.cpu.icache.ReadReq_avg_miss_latency::total 69813.431479                       # average ReadReq miss latency
system.cpu.icache.ReadReq_avg_mshr_miss_latency::.cpu.inst 72732.047285                       # average ReadReq mshr miss latency
system.cpu.icache.ReadReq_avg_mshr_miss_latency::total 72732.047285                       # average ReadReq mshr miss latency
system.cpu.icache.ReadReq_hits::.cpu.inst      3004197                       # number of ReadReq hits
system.cpu.icache.ReadReq_hits::total         3004197                       # number of ReadReq hits
system.cpu.icache.ReadReq_miss_latency::.cpu.inst     51452499                       # number of ReadReq miss cycles
system.cpu.icache.ReadReq_miss_latency::total     51452499                       # number of ReadReq miss cycles
system.cpu.icache.ReadReq_miss_rate::.cpu.inst     0.000245                       # miss rate for ReadReq accesses
system.cpu.icache.ReadReq_miss_rate::total     0.000245                       # miss rate for ReadReq accesses
system.cpu.icache.ReadReq_misses::.cpu.inst          737                       # number of ReadReq misses
system.cpu.icache.ReadReq_misses::total           737                       # number of ReadReq misses
system.cpu.icache.ReadReq_mshr_hits::.cpu.inst          166                       # number of ReadReq MSHR hits
system.cpu.icache.ReadReq_mshr_hits::total          166                       # number of ReadReq MSHR hits
system.cpu.icache.ReadReq_mshr_miss_latency::.cpu.inst     41529999                       # number of ReadReq MSHR miss cycles
system.cpu.icache.ReadReq_mshr_miss_latency::total     41529999                       # number of ReadReq MSHR miss cycles
system.cpu.icache.ReadReq_mshr_miss_rate::.cpu.inst     0.000190                       # mshr miss rate for ReadReq accesses
system.cpu.icache.ReadReq_mshr_miss_rate::total     0.000190                       # mshr miss rate for ReadReq accesses
system.cpu.icache.ReadReq_mshr_misses::.cpu.inst          571                       # number of ReadReq MSHR misses
system.cpu.icache.ReadReq_mshr_misses::total          571                       # number of ReadReq MSHR misses
system.cpu.icache.avg_blocked_cycles::no_mshrs    73.333333                       # average number of cycles each access was blocked
system.cpu.icache.avg_blocked_cycles::no_targets          nan                       # average number of cycles each access was blocked
system.cpu.icache.blocked::no_mshrs                 9                       # number of cycles access was blocked
system.cpu.icache.blocked::no_targets               0                       # number of cycles access was blocked
system.cpu.icache.blocked_cycles::no_mshrs          660                       # number of cycles access was blocked
system.cpu.icache.blocked_cycles::no_targets            0                       # number of cycles access was blocked
system.cpu.icache.demand_accesses::.cpu.inst      3004934                       # number of demand (read+write) accesses
system.cpu.icache.demand_accesses::total      3004934                       # number of demand (read+write) accesses
system.cpu.icache.demand_avg_miss_latency::.cpu.inst 69813.431479                       # average overall miss latency
system.cpu.icache.demand_avg_miss_latency::total 69813.431479                       # average overall miss latency
system.cpu.icache.demand_avg_mshr_miss_latency::.cpu.inst 72732.047285                       # average overall mshr miss latency
system.cpu.icache.demand_avg_mshr_miss_latency::total 72732.047285                       # average overall mshr miss latency
system.cpu.icache.demand_hits::.cpu.inst      3004197                       # number of demand (read+write) hits
system.cpu.icache.demand_hits::total          3004197                       # number of demand (read+write) hits
system.cpu.icache.demand_miss_latency::.cpu.inst     51452499                       # number of demand (read+write) miss cycles
system.cpu.icache.demand_miss_latency::total     51452499                       # number of demand (read+write) miss cycles
system.cpu.icache.demand_miss_rate::.cpu.inst     0.000245                       # miss rate for demand accesses
system.cpu.icache.demand_miss_rate::total     0.000245                       # miss rate for demand accesses
system.cpu.icache.demand_misses::.cpu.inst          737                       # number of demand (read+write) misses
system.cpu.icache.demand_misses::total            737                       # number of demand (read+write) misses
system.cpu.icache.demand_mshr_hits::.cpu.inst          166                       # number of demand (read+write) MSHR hits
system.cpu.icache.demand_mshr_hits::total          166                       # number of demand (read+write) MSHR hits
system.cpu.icache.demand_mshr_miss_latency::.cpu.inst     41529999                       # number of demand (read+write) MSHR miss cycles
system.cpu.icache.demand_mshr_miss_latency::total     41529999                       # number of demand (read+write) MSHR miss cycles
system.cpu.icache.demand_mshr_miss_rate::.cpu.inst     0.000190                       # mshr miss rate for demand accesses
system.cpu.icache.demand_mshr_miss_rate::total     0.000190                       # mshr miss rate for demand accesses
system.cpu.icache.demand_mshr_misses::.cpu.inst          571                       # number of demand (read+write) MSHR misses
system.cpu.icache.demand_mshr_misses::total          571                       # number of demand (read+write) MSHR misses
system.cpu.icache.overall_accesses::.cpu.inst      3004934                       # number of overall (read+write) accesses
system.cpu.icache.overall_accesses::total      3004934                       # number of overall (read+write) accesses
system.cpu.icache.overall_avg_miss_latency::.cpu.inst 69813.431479                       # average overall miss latency
system.cpu.icache.overall_avg_miss_latency::total 69813.431479                       # average overall miss latency
system.cpu.icache.overall_avg_mshr_miss_latency::.cpu.inst 72732.047285                       # average overall mshr miss latency
system.cpu.icache.overall_avg_mshr_miss_latency::total 72732.047285                       # average overall mshr miss latency
system.cpu.icache.overall_hits::.cpu.inst      3004197                       # number of overall hits
system.cpu.icache.overall_hits::total         3004197                       # number of overall hits
system.cpu.icache.overall_miss_latency::.cpu.inst     51452499                       # number of overall miss cycles
system.cpu.icache.overall_miss_latency::total     51452499                       # number of overall miss cycles
system.cpu.icache.overall_miss_rate::.cpu.inst     0.000245                       # miss rate for overall accesses
system.cpu.icache.overall_miss_rate::total     0.000245                       # miss rate for overall accesses
system.cpu.icache.overall_misses::.cpu.inst          737                       # number of overall misses
system.cpu.icache.overall_misses::total           737                       # number of overall misses
system.cpu.icache.overall_mshr_hits::.cpu.inst          166                       # number of overall MSHR hits
system.cpu.icache.overall_mshr_hits::total          166                       # number of overall MSHR hits
system.cpu.icache.overall_mshr_miss_latency::.cpu.inst     41529999                       # number of overall MSHR miss cycles
system.cpu.icache.overall_mshr_miss_latency::total     41529999                       # number of overall MSHR miss cycles
system.cpu.icache.overall_mshr_miss_rate::.cpu.inst     0.000190                       # mshr miss rate for overall accesses
system.cpu.icache.overall_mshr_miss_rate::total     0.000190                       # mshr miss rate for overall accesses
system.cpu.icache.overall_mshr_misses::.cpu.inst          571                       # number of overall MSHR misses
system.cpu.icache.overall_mshr_misses::total          571                       # number of overall MSHR misses
system.cpu.icache.pwrStateResidencyTicks::UNDEFINED   4972271500                       # Cumulative time (in ticks) in various power states
system.cpu.icache.replacements                    166                       # number of replacements
system.cpu.icache.tags.age_task_id_blocks_1024::0          178                       # Occupied blocks per task id
system.cpu.icache.tags.age_task_id_blocks_1024::1           70                       # Occupied blocks per task id
system.cpu.icache.tags.age_task_id_blocks_1024::3          157                       # Occupied blocks per task id
system.cpu.icache.tags.avg_refs           5262.290718                       # Average number of references to valid blocks.
system.cpu.icache.tags.data_accesses          6010439                       # Number of data accesses
system.cpu.icache.tags.occ_blocks::.cpu.inst   252.583733                       # Average occupied blocks per requestor
system.cpu.icache.tags.occ_percent::.cpu.inst     0.493328                       # Average percentage of cache occupancy
system.cpu.icache.tags.occ_percent::total     0.493328                       # Average percentage of cache occupancy
system.cpu.icache.tags.occ_task_id_blocks::1024          405                       # Occupied blocks per task id
system.cpu.icache.tags.occ_task_id_percent::1024     0.791016                       # Percentage of cache occupancy per task id
system.cpu.icache.tags.pwrStateResidencyTicks::UNDEFINED   4972271500                       # Cumulative time (in ticks) in various power states
system.cpu.icache.tags.sampled_refs               571                       # Sample count of references to valid blocks.
system.cpu.icache.tags.tag_accesses           6010439                       # Number of tag accesses
system.cpu.icache.tags.tagsinuse           252.583733                       # Cycle average of tags in use
system.cpu.icache.tags.total_refs             3004768                       # Total number of references to valid blocks.
system.cpu.icache.tags.warmup_cycle             87500                       # Cycle when the warmup percentage was hit.
system.cpu.icache.writebacks::.writebacks          166                       # number of writebacks
system.cpu.icache.writebacks::total               166                       # number of writebacks
system.cpu.idleCycles                           42864                       # Total number of cycles that the CPU has spent unscheduled due to idling
system.cpu.iew.branchMispredicts                  681                       # Number of branch mispredicts detected at execute
system.cpu.iew.exec_branches                  3359266                       # Number of branches executed
system.cpu.iew.exec_nop                             0                       # number of nop insts executed
system.cpu.iew.exec_rate                     2.031119                       # Inst execution rate
system.cpu.iew.exec_refs                      3506016                       # number of memory reference insts executed
system.cpu.iew.exec_stores                     702509                       # Number of stores executed
system.cpu.iew.exec_swp                             0                       # number of swp insts executed
system.cpu.iew.iewBlockCycles                  419560                       # Number of cycles IEW is blocking
system.cpu.iew.iewDispLoadInsts               2803956                       # Number of dispatched load instructions
system.cpu.iew.iewDispNonSpecInsts                 33                       # Number of dispatched non-speculative instructions
system.cpu.iew.iewDispSquashedInsts               178                       # Number of squashed instructions skipped by dispatch
system.cpu.iew.iewDispStoreInsts               702876                       # Number of dispatched store instructions
system.cpu.iew.iewDispatchedInsts            20201658                       # Number of instructions dispatched to IQ
system.cpu.iew.iewExecLoadInsts               2803507                       # Number of load instructions executed
system.cpu.iew.iewExecSquashedInsts               730                       # Number of squashed instructions skipped in execute
system.cpu.iew.iewExecutedInsts              20198550                       # Number of executed instructions
system.cpu.iew.iewIQFullEvents                    539                       # Number of times the IQ has become full, causing a stall
system.cpu.iew.iewIdleCycles                        0                       # Number of cycles IEW is idle
system.cpu.iew.iewLSQFullEvents                    22                       # Number of times the LSQ has become full, causing a stall
system.cpu.iew.iewSquashCycles                    684                       # Number of cycles IEW is squashing
system.cpu.iew.iewUnblockCycles                  2282                       # Number of cycles IEW is unblocking
system.cpu.iew.lsq.thread0.blockedLoads             0                       # Number of blocked loads due to partial load-store forwarding
system.cpu.iew.lsq.thread0.cacheBlocked            13                       # Number of times an access to memory failed due to the cache being blocked
system.cpu.iew.lsq.thread0.forwLoads           700122                       # Number of loads that had data forwarded from stores
system.cpu.iew.lsq.thread0.ignoredResponses           14                       # Number of memory responses ignored because the instruction is squashed
system.cpu.iew.lsq.thread0.invAddrLoads             0                       # Number of loads ignored due to an invalid address
system.cpu.iew.lsq.thread0.invAddrSwpfs             0                       # Number of software prefetches ignored due to an invalid address
system.cpu.iew.lsq.thread0.memOrderViolation           38                       # Number of memory ordering violations
system.cpu.iew.lsq.thread0.rescheduledLoads           20                       # Number of loads that were rescheduled
system.cpu.iew.lsq.thread0.squashedLoads         1472                       # Number of loads squashed
system.cpu.iew.lsq.thread0.squashedStores          715                       # Number of stores squashed
system.cpu.iew.memOrderViolationEvents             38                       # Number of memory order violations
system.cpu.iew.predictedNotTakenIncorrect          479                       # Number of branches that were predicted not taken incorrectly
system.cpu.iew.predictedTakenIncorrect            202                       # Number of branches that were predicted taken incorrectly
system.cpu.iew.wb_consumers                  35900081                       # num instructions consuming a value
system.cpu.iew.wb_count                      20197995                       # cumulative count of insts written-back
system.cpu.iew.wb_fanout                     0.428979                       # average fanout of values written-back
system.cpu.iew.wb_producers                  15400397                       # num instructions producing a value
system.cpu.iew.wb_rate                       2.031063                       # insts written-back per cycle
system.cpu.iew.wb_sent                       20198101                       # cumulative count of insts sent to commit
system.cpu.int_regfile_reads                 25141835                       # number of integer regfile reads
system.cpu.int_regfile_writes                14178701                       # number of integer regfile writes
system.cpu.ipc                               2.030540                       # IPC: Instructions Per Cycle
system.cpu.ipc_total                         2.030540                       # IPC: Total IPC of All Threads
system.cpu.iq.FU_type_0::No_OpClass                 9      0.00%      0.00% # Type of FU issued
system.cpu.iq.FU_type_0::IntAlu              16692860     82.64%     82.64% # Type of FU issued
system.cpu.iq.FU_type_0::IntMult                   65      0.00%     82.64% # Type of FU issued
system.cpu.iq.FU_type_0::IntDiv                     0      0.00%     82.64% # Type of FU issued
system.cpu.iq.FU_type_0::FloatAdd                   0      0.00%     82.64% # Type of FU issued
system.cpu.iq.FU_type_0::FloatCmp                   0      0.00%     82.64% # Type of FU issued
system.cpu.iq.FU_type_0::FloatCvt                   0      0.00%     82.64% # Type of FU issued
system.cpu.iq.FU_type_0::FloatMult                  0      0.00%     82.64% # Type of FU issued
system.cpu.iq.FU_type_0::FloatMultAcc               0      0.00%     82.64% # Type of FU issued
system.cpu.iq.FU_type_0::FloatDiv                   0      0.00%     82.64% # Type of FU issued
system.cpu.iq.FU_type_0::FloatMisc                  0      0.00%     82.64% # Type of FU issued
system.cpu.iq.FU_type_0::FloatSqrt                  0      0.00%     82.64% # Type of FU issued
system.cpu.iq.FU_type_0::SimdAdd                    0      0.00%     82.64% # Type of FU issued
system.cpu.iq.FU_type_0::SimdAddAcc                 0      0.00%     82.64% # Type of FU issued
system.cpu.iq.FU_type_0::SimdAlu                    0      0.00%     82.64% # Type of FU issued
system.cpu.iq.FU_type_0::SimdCmp                    0      0.00%     82.64% # Type of FU issued
system.cpu.iq.FU_type_0::SimdCvt                    0      0.00%     82.64% # Type of FU issued
system.cpu.iq.FU_type_0::SimdMisc                   0      0.00%     82.64% # Type of FU issued
system.cpu.iq.FU_type_0::SimdMult                   0      0.00%     82.64% # Type of FU issued
system.cpu.iq.FU_type_0::SimdMultAcc                0      0.00%     82.64% # Type of FU issued
system.cpu.iq.FU_type_0::SimdShift                  0      0.00%     82.64% # Type of FU issued
system.cpu.iq.FU_type_0::SimdShiftAcc               0      0.00%     82.64% # Type of FU issued
system.cpu.iq.FU_type_0::SimdDiv                    0      0.00%     82.64% # Type of FU issued
system.cpu.iq.FU_type_0::SimdSqrt                   0      0.00%     82.64% # Type of FU issued
system.cpu.iq.FU_type_0::SimdFloatAdd               0      0.00%     82.64% # Type of FU issued
system.cpu.iq.FU_type_0::SimdFloatAlu               0      0.00%     82.64% # Type of FU issued
system.cpu.iq.FU_type_0::SimdFloatCmp               0      0.00%     82.64% # Type of FU issued
system.cpu.iq.FU_type_0::SimdFloatCvt               0      0.00%     82.64% # Type of FU issued
system.cpu.iq.FU_type_0::SimdFloatDiv               0      0.00%     82.64% # Type of FU issued
system.cpu.iq.FU_type_0::SimdFloatMisc              1      0.00%     82.64% # Type of FU issued
system.cpu.iq.FU_type_0::SimdFloatMult              0      0.00%     82.64% # Type of FU issued
system.cpu.iq.FU_type_0::SimdFloatMultAcc            0      0.00%     82.64% # Type of FU issued
system.cpu.iq.FU_type_0::SimdFloatSqrt              0      0.00%     82.64% # Type of FU issued
system.cpu.iq.FU_type_0::SimdReduceAdd              0      0.00%     82.64% # Type of FU issued
system.cpu.iq.FU_type_0::SimdReduceAlu              0      0.00%     82.64% # Type of FU issued
system.cpu.iq.FU_type_0::SimdReduceCmp              0      0.00%     82.64% # Type of FU issued
system.cpu.iq.FU_type_0::SimdFloatReduceAdd            0      0.00%     82.64% # Type of FU issued
system.cpu.iq.FU_type_0::SimdFloatReduceCmp            0      0.00%     82.64% # Type of FU issued
system.cpu.iq.FU_type_0::SimdAes                    0      0.00%     82.64% # Type of FU issued
system.cpu.iq.FU_type_0::SimdAesMix                 0      0.00%     82.64% # Type of FU issued
system.cpu.iq.FU_type_0::SimdSha1Hash               0      0.00%     82.64% # Type of FU issued
system.cpu.iq.FU_type_0::SimdSha1Hash2              0      0.00%     82.64% # Type of FU issued
system.cpu.iq.FU_type_0::SimdSha256Hash             0      0.00%     82.64% # Type of FU issued
system.cpu.iq.FU_type_0::SimdSha256Hash2            0      0.00%     82.64% # Type of FU issued
system.cpu.iq.FU_type_0::SimdShaSigma2              0      0.00%     82.64% # Type of FU issued
system.cpu.iq.FU_type_0::SimdShaSigma3              0      0.00%     82.64% # Type of FU issued
system.cpu.iq.FU_type_0::SimdPredAlu                0      0.00%     82.64% # Type of FU issued
system.cpu.iq.FU_type_0::MemRead              2803751     13.88%     96.52% # Type of FU issued
system.cpu.iq.FU_type_0::MemWrite              702594      3.48%    100.00% # Type of FU issued
system.cpu.iq.FU_type_0::FloatMemRead               0      0.00%    100.00% # Type of FU issued
system.cpu.iq.FU_type_0::FloatMemWrite              0      0.00%    100.00% # Type of FU issued
system.cpu.iq.FU_type_0::IprAccess                  0      0.00%    100.00% # Type of FU issued
system.cpu.iq.FU_type_0::InstPrefetch               0      0.00%    100.00% # Type of FU issued
system.cpu.iq.FU_type_0::total               20199280                       # Type of FU issued
system.cpu.iq.fp_alu_accesses                       0                       # Number of floating point alu accesses
system.cpu.iq.fp_inst_queue_reads                   0                       # Number of floating instruction queue reads
system.cpu.iq.fp_inst_queue_wakeup_accesses            0                       # Number of floating instruction queue wakeup accesses
system.cpu.iq.fp_inst_queue_writes                  0                       # Number of floating instruction queue writes
system.cpu.iq.fu_busy_cnt                         190                       # FU busy when requested
system.cpu.iq.fu_busy_rate                   0.000009                       # FU busy rate (busy events/executed inst)
system.cpu.iq.fu_full::No_OpClass                   0      0.00%      0.00% # attempts to use FU when none available
system.cpu.iq.fu_full::IntAlu                       4      2.11%      2.11% # attempts to use FU when none available
system.cpu.iq.fu_full::IntMult                      0      0.00%      2.11% # attempts to use FU when none available
system.cpu.iq.fu_full::IntDiv                       0      0.00%      2.11% # attempts to use FU when none available
system.cpu.iq.fu_full::FloatAdd                     0      0.00%      2.11% # attempts to use FU when none available
system.cpu.iq.fu_full::FloatCmp                     0      0.00%      2.11% # attempts to use FU when none available
system.cpu.iq.fu_full::FloatCvt                     0      0.00%      2.11% # attempts to use FU when none available
system.cpu.iq.fu_full::FloatMult                    0      0.00%      2.11% # attempts to use FU when none available
system.cpu.iq.fu_full::FloatMultAcc                 0      0.00%      2.11% # attempts to use FU when none available
system.cpu.iq.fu_full::FloatDiv                     0      0.00%      2.11% # attempts to use FU when none available
system.cpu.iq.fu_full::FloatMisc                    0      0.00%      2.11% # attempts to use FU when none available
system.cpu.iq.fu_full::FloatSqrt                    0      0.00%      2.11% # attempts to use FU when none available
system.cpu.iq.fu_full::SimdAdd                      0      0.00%      2.11% # attempts to use FU when none available
system.cpu.iq.fu_full::SimdAddAcc                   0      0.00%      2.11% # attempts to use FU when none available
system.cpu.iq.fu_full::SimdAlu                      0      0.00%      2.11% # attempts to use FU when none available
system.cpu.iq.fu_full::SimdCmp                      0      0.00%      2.11% # attempts to use FU when none available
system.cpu.iq.fu_full::SimdCvt                      0      0.00%      2.11% # attempts to use FU when none available
system.cpu.iq.fu_full::SimdMisc                     0      0.00%      2.11% # attempts to use FU when none available
system.cpu.iq.fu_full::SimdMult                     0      0.00%      2.11% # attempts to use FU when none available
system.cpu.iq.fu_full::SimdMultAcc                  0      0.00%      2.11% # attempts to use FU when none available
system.cpu.iq.fu_full::SimdShift                    0      0.00%      2.11% # attempts to use FU when none available
system.cpu.iq.fu_full::SimdShiftAcc                 0      0.00%      2.11% # attempts to use FU when none available
system.cpu.iq.fu_full::SimdDiv                      0      0.00%      2.11% # attempts to use FU when none available
system.cpu.iq.fu_full::SimdSqrt                     0      0.00%      2.11% # attempts to use FU when none available
system.cpu.iq.fu_full::SimdFloatAdd                 0      0.00%      2.11% # attempts to use FU when none available
system.cpu.iq.fu_full::SimdFloatAlu                 0      0.00%      2.11% # attempts to use FU when none available
system.cpu.iq.fu_full::SimdFloatCmp                 0      0.00%      2.11% # attempts to use FU when none available
system.cpu.iq.fu_full::SimdFloatCvt                 0      0.00%      2.11% # attempts to use FU when none available
system.cpu.iq.fu_full::SimdFloatDiv                 0      0.00%      2.11% # attempts to use FU when none available
system.cpu.iq.fu_full::SimdFloatMisc                0      0.00%      2.11% # attempts to use FU when none available
system.cpu.iq.fu_full::SimdFloatMult                0      0.00%      2.11% # attempts to use FU when none available
system.cpu.iq.fu_full::SimdFloatMultAcc             0      0.00%      2.11% # attempts to use FU when none available
system.cpu.iq.fu_full::SimdFloatSqrt                0      0.00%      2.11% # attempts to use FU when none available
system.cpu.iq.fu_full::SimdReduceAdd                0      0.00%      2.11% # attempts to use FU when none available
system.cpu.iq.fu_full::SimdReduceAlu                0      0.00%      2.11% # attempts to use FU when none available
system.cpu.iq.fu_full::SimdReduceCmp                0      0.00%      2.11% # attempts to use FU when none available
system.cpu.iq.fu_full::SimdFloatReduceAdd            0      0.00%      2.11% # attempts to use FU when none available
system.cpu.iq.fu_full::SimdFloatReduceCmp            0      0.00%      2.11% # attempts to use FU when none available
system.cpu.iq.fu_full::SimdAes                      0      0.00%      2.11% # attempts to use FU when none available
system.cpu.iq.fu_full::SimdAesMix                   0      0.00%      2.11% # attempts to use FU when none available
system.cpu.iq.fu_full::SimdSha1Hash                 0      0.00%      2.11% # attempts to use FU when none available
system.cpu.iq.fu_full::SimdSha1Hash2                0      0.00%      2.11% # attempts to use FU when none available
system.cpu.iq.fu_full::SimdSha256Hash               0      0.00%      2.11% # attempts to use FU when none available
system.cpu.iq.fu_full::SimdSha256Hash2              0      0.00%      2.11% # attempts to use FU when none available
system.cpu.iq.fu_full::SimdShaSigma2                0      0.00%      2.11% # attempts to use FU when none available
system.cpu.iq.fu_full::SimdShaSigma3                0      0.00%      2.11% # attempts to use FU when none available
system.cpu.iq.fu_full::SimdPredAlu                  0      0.00%      2.11% # attempts to use FU when none available
system.cpu.iq.fu_full::MemRead                     70     36.84%     38.95% # attempts to use FU when none available
system.cpu.iq.fu_full::MemWrite                   116     61.05%    100.00% # attempts to use FU when none available
system.cpu.iq.fu_full::FloatMemRead                 0      0.00%    100.00% # attempts to use FU when none available
system.cpu.iq.fu_full::FloatMemWrite                0      0.00%    100.00% # attempts to use FU when none available
system.cpu.iq.fu_full::IprAccess                    0      0.00%    100.00% # attempts to use FU when none available
system.cpu.iq.fu_full::InstPrefetch                 0      0.00%    100.00% # attempts to use FU when none available
system.cpu.iq.int_alu_accesses               20199461                       # Number of integer alu accesses
system.cpu.iq.int_inst_queue_reads           50300449                       # Number of integer instruction queue reads
system.cpu.iq.int_inst_queue_wakeup_accesses     20197995                       # Number of integer instruction queue wakeup accesses
system.cpu.iq.int_inst_queue_writes          20208494                       # Number of integer instruction queue writes
system.cpu.iq.iqInstsAdded                   20201607                       # Number of instructions added to the IQ (excludes non-spec)
system.cpu.iq.iqInstsIssued                  20199280                       # Number of instructions issued
system.cpu.iq.iqNonSpecInstsAdded                  51                       # Number of non-speculative instructions added to the IQ
system.cpu.iq.iqSquashedInstsExamined            6799                       # Number of squashed instructions iterated over during squash; mainly for profiling
system.cpu.iq.iqSquashedInstsIssued                19                       # Number of squashed instructions issued
system.cpu.iq.iqSquashedNonSpecRemoved              5                       # Number of squashed non-spec instructions that were removed
system.cpu.iq.iqSquashedOperandsExamined        15405                       # Number of squashed operands that are examined and possibly removed from graph
system.cpu.iq.issued_per_cycle::samples       9901680                       # Number of insts issued each cycle
system.cpu.iq.issued_per_cycle::mean         2.039985                       # Number of insts issued each cycle
system.cpu.iq.issued_per_cycle::stdev        1.374778                       # Number of insts issued each cycle
system.cpu.iq.issued_per_cycle::underflows            0      0.00%      0.00% # Number of insts issued each cycle
system.cpu.iq.issued_per_cycle::0              872170      8.81%      8.81% # Number of insts issued each cycle
system.cpu.iq.issued_per_cycle::1             3230848     32.63%     41.44% # Number of insts issued each cycle
system.cpu.iq.issued_per_cycle::2             2746700     27.74%     69.18% # Number of insts issued each cycle
system.cpu.iq.issued_per_cycle::3             1442379     14.57%     83.74% # Number of insts issued each cycle
system.cpu.iq.issued_per_cycle::4             1132414     11.44%     95.18% # Number of insts issued each cycle
system.cpu.iq.issued_per_cycle::5              303417      3.06%     98.25% # Number of insts issued each cycle
system.cpu.iq.issued_per_cycle::6              115124      1.16%     99.41% # Number of insts issued each cycle
system.cpu.iq.issued_per_cycle::7               58614      0.59%    100.00% # Number of insts issued each cycle
system.cpu.iq.issued_per_cycle::8                  14      0.00%    100.00% # Number of insts issued each cycle
system.cpu.iq.issued_per_cycle::overflows            0      0.00%    100.00% # Number of insts issued each cycle
system.cpu.iq.issued_per_cycle::min_value            0                       # Number of insts issued each cycle
system.cpu.iq.issued_per_cycle::max_value            8                       # Number of insts issued each cycle
system.cpu.iq.issued_per_cycle::total         9901680                       # Number of insts issued each cycle
system.cpu.iq.rate                           2.031192                       # Inst issue rate
system.cpu.iq.vec_alu_accesses                      0                       # Number of vector alu accesses
system.cpu.iq.vec_inst_queue_reads                  0                       # Number of vector instruction queue reads
system.cpu.iq.vec_inst_queue_wakeup_accesses            0                       # Number of vector instruction queue wakeup accesses
system.cpu.iq.vec_inst_queue_writes                 0                       # Number of vector instruction queue writes
system.cpu.istage2_mmu.stage2_tlb.accesses            0                       # DTB accesses
system.cpu.istage2_mmu.stage2_tlb.align_faults            0                       # Number of TLB faults due to alignment restrictions
system.cpu.istage2_mmu.stage2_tlb.domain_faults            0                       # Number of TLB faults due to domain restrictions
system.cpu.istage2_mmu.stage2_tlb.flush_entries            0                       # Number of entries that have been flushed from TLB
system.cpu.istage2_mmu.stage2_tlb.flush_tlb            0                       # Number of times complete TLB was flushed
system.cpu.istage2_mmu.stage2_tlb.flush_tlb_asid            0                       # Number of times TLB was flushed by ASID
system.cpu.istage2_mmu.stage2_tlb.flush_tlb_mva            0                       # Number of times TLB was flushed by MVA
system.cpu.istage2_mmu.stage2_tlb.flush_tlb_mva_asid            0                       # Number of times TLB was flushed by MVA & ASID
system.cpu.istage2_mmu.stage2_tlb.hits              0                       # DTB hits
system.cpu.istage2_mmu.stage2_tlb.inst_accesses            0                       # ITB inst accesses
system.cpu.istage2_mmu.stage2_tlb.inst_hits            0                       # ITB inst hits
system.cpu.istage2_mmu.stage2_tlb.inst_misses            0                       # ITB inst misses
system.cpu.istage2_mmu.stage2_tlb.misses            0                       # DTB misses
system.cpu.istage2_mmu.stage2_tlb.perms_faults            0                       # Number of TLB faults due to permissions restrictions
system.cpu.istage2_mmu.stage2_tlb.prefetch_faults            0                       # Number of TLB faults due to prefetch
system.cpu.istage2_mmu.stage2_tlb.read_accesses            0                       # DTB read accesses
system.cpu.istage2_mmu.stage2_tlb.read_hits            0                       # DTB read hits
system.cpu.istage2_mmu.stage2_tlb.read_misses            0                       # DTB read misses
system.cpu.istage2_mmu.stage2_tlb.walker.pwrStateResidencyTicks::UNDEFINED   4972271500                       # Cumulative time (in ticks) in various power states
system.cpu.istage2_mmu.stage2_tlb.walker.walkRequestOrigin_Requested::Data            0                       # Table walker requests started/completed, data/inst
system.cpu.istage2_mmu.stage2_tlb.walker.walkRequestOrigin_Requested::Inst            0                       # Table walker requests started/completed, data/inst
system.cpu.istage2_mmu.stage2_tlb.walker.walkRequestOrigin_Requested::total            0                       # Table walker requests started/completed, data/inst
system.cpu.istage2_mmu.stage2_tlb.walker.walkRequestOrigin_Completed::Data            0                       # Table walker requests started/completed, data/inst
system.cpu.istage2_mmu.stage2_tlb.walker.walkRequestOrigin_Completed::Inst            0                       # Table walker requests started/completed, data/inst
system.cpu.istage2_mmu.stage2_tlb.walker.walkRequestOrigin_Completed::total            0                       # Table walker requests started/completed, data/inst
system.cpu.istage2_mmu.stage2_tlb.walker.walkRequestOrigin::total            0                       # Table walker requests started/completed, data/inst
system.cpu.istage2_mmu.stage2_tlb.walker.walks            0                       # Table walker walks requested
system.cpu.istage2_mmu.stage2_tlb.write_accesses            0                       # DTB write accesses
system.cpu.istage2_mmu.stage2_tlb.write_hits            0                       # DTB write hits
system.cpu.istage2_mmu.stage2_tlb.write_misses            0                       # DTB write misses
system.cpu.itb.accesses                             0                       # DTB accesses
system.cpu.itb.align_faults                         0                       # Number of TLB faults due to alignment restrictions
system.cpu.itb.domain_faults                        0                       # Number of TLB faults due to domain restrictions
system.cpu.itb.flush_entries                        0                       # Number of entries that have been flushed from TLB
system.cpu.itb.flush_tlb                            0                       # Number of times complete TLB was flushed
system.cpu.itb.flush_tlb_asid                       0                       # Number of times TLB was flushed by ASID
system.cpu.itb.flush_tlb_mva                        0                       # Number of times TLB was flushed by MVA
system.cpu.itb.flush_tlb_mva_asid                   0                       # Number of times TLB was flushed by MVA & ASID
system.cpu.itb.hits                                 0                       # DTB hits
system.cpu.itb.inst_accesses                        0                       # ITB inst accesses
system.cpu.itb.inst_hits                            0                       # ITB inst hits
system.cpu.itb.inst_misses                          0                       # ITB inst misses
system.cpu.itb.misses                               0                       # DTB misses
system.cpu.itb.perms_faults                         0                       # Number of TLB faults due to permissions restrictions
system.cpu.itb.prefetch_faults                      0                       # Number of TLB faults due to prefetch
system.cpu.itb.read_accesses                        0                       # DTB read accesses
system.cpu.itb.read_hits                            0                       # DTB read hits
system.cpu.itb.read_misses                          0                       # DTB read misses
system.cpu.itb.walker.pwrStateResidencyTicks::UNDEFINED   4972271500                       # Cumulative time (in ticks) in various power states
system.cpu.itb.walker.walkRequestOrigin_Requested::Data            0                       # Table walker requests started/completed, data/inst
system.cpu.itb.walker.walkRequestOrigin_Requested::Inst            0                       # Table walker requests started/completed, data/inst
system.cpu.itb.walker.walkRequestOrigin_Requested::total            0                       # Table walker requests started/completed, data/inst
system.cpu.itb.walker.walkRequestOrigin_Completed::Data            0                       # Table walker requests started/completed, data/inst
[...]
system.mem_ctrls.wrQLenPdf::19                      0                       # What write queue length does an incoming req see
system.mem_ctrls.wrQLenPdf::20                      0                       # What write queue length does an incoming req see
system.mem_ctrls.wrQLenPdf::21                      0                       # What write queue length does an incoming req see
system.mem_ctrls.wrQLenPdf::22                      0                       # What write queue length does an incoming req see
system.mem_ctrls.wrQLenPdf::23                      0                       # What write queue length does an incoming req see
system.mem_ctrls.wrQLenPdf::24                      0                       # What write queue length does an incoming req see
system.mem_ctrls.wrQLenPdf::25                      0                       # What write queue length does an incoming req see
system.mem_ctrls.wrQLenPdf::26                      0                       # What write queue length does an incoming req see
system.mem_ctrls.wrQLenPdf::27                      0                       # What write queue length does an incoming req see
system.mem_ctrls.wrQLenPdf::28                      0                       # What write queue length does an incoming req see
system.mem_ctrls.wrQLenPdf::29                      0                       # What write queue length does an incoming req see
system.mem_ctrls.wrQLenPdf::30                      0                       # What write queue length does an incoming req see
system.mem_ctrls.wrQLenPdf::31                      0                       # What write queue length does an incoming req see
system.mem_ctrls.wrQLenPdf::32                      0                       # What write queue length does an incoming req see
system.mem_ctrls.wrQLenPdf::33                      0                       # What write queue length does an incoming req see
system.mem_ctrls.wrQLenPdf::34                      0                       # What write queue length does an incoming req see
system.mem_ctrls.wrQLenPdf::35                      0                       # What write queue length does an incoming req see
system.mem_ctrls.wrQLenPdf::36                      0                       # What write queue length does an incoming req see
system.mem_ctrls.wrQLenPdf::37                      0                       # What write queue length does an incoming req see
system.mem_ctrls.wrQLenPdf::38                      0                       # What write queue length does an incoming req see
system.mem_ctrls.wrQLenPdf::39                      0                       # What write queue length does an incoming req see
system.mem_ctrls.wrQLenPdf::40                      0                       # What write queue length does an incoming req see
system.mem_ctrls.wrQLenPdf::41                      0                       # What write queue length does an incoming req see
system.mem_ctrls.wrQLenPdf::42                      0                       # What write queue length does an incoming req see
system.mem_ctrls.wrQLenPdf::43                      0                       # What write queue length does an incoming req see
system.mem_ctrls.wrQLenPdf::44                      0                       # What write queue length does an incoming req see
system.mem_ctrls.wrQLenPdf::45                      0                       # What write queue length does an incoming req see
system.mem_ctrls.wrQLenPdf::46                      0                       # What write queue length does an incoming req see
system.mem_ctrls.wrQLenPdf::47                      0                       # What write queue length does an incoming req see
system.mem_ctrls.wrQLenPdf::48                      0                       # What write queue length does an incoming req see
system.mem_ctrls.wrQLenPdf::49                      0                       # What write queue length does an incoming req see
system.mem_ctrls.wrQLenPdf::50                      0                       # What write queue length does an incoming req see
system.mem_ctrls.wrQLenPdf::51                      0                       # What write queue length does an incoming req see
system.mem_ctrls.wrQLenPdf::52                      0                       # What write queue length does an incoming req see
system.mem_ctrls.wrQLenPdf::53                      0                       # What write queue length does an incoming req see
system.mem_ctrls.wrQLenPdf::54                      0                       # What write queue length does an incoming req see
system.mem_ctrls.wrQLenPdf::55                      0                       # What write queue length does an incoming req see
system.mem_ctrls.wrQLenPdf::56                      0                       # What write queue length does an incoming req see
system.mem_ctrls.wrQLenPdf::57                      0                       # What write queue length does an incoming req see
system.mem_ctrls.wrQLenPdf::58                      0                       # What write queue length does an incoming req see
system.mem_ctrls.wrQLenPdf::59                      0                       # What write queue length does an incoming req see
system.mem_ctrls.wrQLenPdf::60                      0                       # What write queue length does an incoming req see
system.mem_ctrls.wrQLenPdf::61                      0                       # What write queue length does an incoming req see
system.mem_ctrls.wrQLenPdf::62                      0                       # What write queue length does an incoming req see
system.mem_ctrls.wrQLenPdf::63                      0                       # What write queue length does an incoming req see
system.mem_ctrls.writeBursts                        0                       # Number of DRAM write bursts, including those merged in the write queue
system.mem_ctrls.writePktSize::0                    0                       # Write request sizes (log2)
system.mem_ctrls.writePktSize::1                    0                       # Write request sizes (log2)
system.mem_ctrls.writePktSize::2                    0                       # Write request sizes (log2)
system.mem_ctrls.writePktSize::3                    0                       # Write request sizes (log2)
system.mem_ctrls.writePktSize::4                    0                       # Write request sizes (log2)
system.mem_ctrls.writePktSize::5                    0                       # Write request sizes (log2)
system.mem_ctrls.writePktSize::6                    0                       # Write request sizes (log2)
system.mem_ctrls.writeReqs                          0                       # Number of write requests accepted
system.mem_ctrls.writeRowHitRate                  nan                       # Row buffer hit rate for writes
system.mem_ctrls.writeRowHits                       0                       # Number of row buffer hits during writes
system.mem_ctrls_0.actBackEnergy            387590310                       # Energy for active background per rank (pJ)
system.mem_ctrls_0.actEnergy                 10717140                       # Energy for activate commands per rank (pJ)
system.mem_ctrls_0.actPowerDownEnergy               0                       # Energy for active power-down per rank (pJ)
system.mem_ctrls_0.averagePower            487.935831                       # Core power per rank (mW)
system.mem_ctrls_0.memoryStateTime::IDLE   4103702000                       # Time in different power states
system.mem_ctrls_0.memoryStateTime::REF     165880000                       # Time in different power states
system.mem_ctrls_0.memoryStateTime::SREF            0                       # Time in different power states
system.mem_ctrls_0.memoryStateTime::PRE_PDN            0                       # Time in different power states
system.mem_ctrls_0.memoryStateTime::ACT     702689500                       # Time in different power states
system.mem_ctrls_0.memoryStateTime::ACT_PDN            0                       # Time in different power states
system.mem_ctrls_0.preBackEnergy           1582960800                       # Energy for precharge background per rank (pJ)
system.mem_ctrls_0.preEnergy                  5681115                       # Energy for precharge commands per rank (pJ)
system.mem_ctrls_0.prePowerDownEnergy               0                       # Energy for precharge power-down per rank (pJ)
system.mem_ctrls_0.readEnergy                47059740                       # Energy for read commands per rank (pJ)
system.mem_ctrls_0.refreshEnergy         392140320.000000                       # Energy for refresh commands per rank (pJ)
system.mem_ctrls_0.selfRefreshEnergy                0                       # Energy for self refresh per rank (pJ)
system.mem_ctrls_0.totalEnergy             2426149425                       # Total energy per rank (pJ)
system.mem_ctrls_0.totalIdleTime                    0                       # Total Idle time Per DRAM Rank
system.mem_ctrls_0.writeEnergy                      0                       # Energy for write commands per rank (pJ)
system.mem_ctrls_1.actBackEnergy            394821330                       # Energy for active background per rank (pJ)
system.mem_ctrls_1.actEnergy                 10809960                       # Energy for activate commands per rank (pJ)
system.mem_ctrls_1.actPowerDownEnergy               0                       # Energy for active power-down per rank (pJ)
system.mem_ctrls_1.averagePower            488.204766                       # Core power per rank (mW)
system.mem_ctrls_1.memoryStateTime::IDLE   4088375000                       # Time in different power states
system.mem_ctrls_1.memoryStateTime::REF     165880000                       # Time in different power states
system.mem_ctrls_1.memoryStateTime::SREF            0                       # Time in different power states
system.mem_ctrls_1.memoryStateTime::PRE_PDN            0                       # Time in different power states
system.mem_ctrls_1.memoryStateTime::ACT     718016500                       # Time in different power states
system.mem_ctrls_1.memoryStateTime::ACT_PDN            0                       # Time in different power states
system.mem_ctrls_1.preBackEnergy           1576871520                       # Energy for precharge background per rank (pJ)
system.mem_ctrls_1.preEnergy                  5726655                       # Energy for precharge commands per rank (pJ)
system.mem_ctrls_1.prePowerDownEnergy               0                       # Energy for precharge power-down per rank (pJ)
system.mem_ctrls_1.readEnergy                47116860                       # Energy for read commands per rank (pJ)
system.mem_ctrls_1.refreshEnergy         392140320.000000                       # Energy for refresh commands per rank (pJ)
system.mem_ctrls_1.selfRefreshEnergy                0                       # Energy for self refresh per rank (pJ)
system.mem_ctrls_1.totalEnergy             2427486645                       # Total energy per rank (pJ)
system.mem_ctrls_1.totalIdleTime                    0                       # Total Idle time Per DRAM Rank
system.mem_ctrls_1.writeEnergy                      0                       # Energy for write commands per rank (pJ)
system.membus.pkt_count_system.l2.mem_side::system.mem_ctrls.port        26380                       # Packet count per connected master and slave (bytes)
system.membus.pkt_count::total                  26380                       # Packet count per connected master and slave (bytes)
system.membus.pkt_size_system.l2.mem_side::system.mem_ctrls.port       844160                       # Cumulative packet size per connected master and slave (bytes)
system.membus.pkt_size::total                  844160                       # Cumulative packet size per connected master and slave (bytes)
system.membus.pwrStateResidencyTicks::UNDEFINED   4972271500                       # Cumulative time (in ticks) in various power states
system.membus.reqLayer0.occupancy            14377000                       # Layer occupancy (ticks)
system.membus.reqLayer0.utilization               0.3                       # Layer utilization (%)
system.membus.respLayer1.occupancy           69717000                       # Layer occupancy (ticks)
system.membus.respLayer1.utilization              1.4                       # Layer utilization (%)
system.membus.snoopTraffic                          0                       # Total snoop traffic (bytes)
system.membus.snoop_fanout::samples             13190                       # Request fanout histogram
system.membus.snoop_fanout::mean                    0                       # Request fanout histogram
system.membus.snoop_fanout::stdev                   0                       # Request fanout histogram
system.membus.snoop_fanout::underflows              0      0.00%      0.00% # Request fanout histogram
system.membus.snoop_fanout::0                   13190    100.00%    100.00% # Request fanout histogram
system.membus.snoop_fanout::1                       0      0.00%    100.00% # Request fanout histogram
system.membus.snoop_fanout::overflows               0      0.00%    100.00% # Request fanout histogram
system.membus.snoop_fanout::min_value               0                       # Request fanout histogram
system.membus.snoop_fanout::max_value               0                       # Request fanout histogram
system.membus.snoop_fanout::total               13190                       # Request fanout histogram
system.membus.snoop_filter.hit_multi_requests            0                       # Number of requests hitting in the snoop filter with multiple (>1) holders of the requested data.
system.membus.snoop_filter.hit_multi_snoops            0                       # Number of snoops hitting in the snoop filter with multiple (>1) holders of the requested data.
system.membus.snoop_filter.hit_single_requests            0                       # Number of requests hitting in the snoop filter with a single holder of the requested data.
system.membus.snoop_filter.hit_single_snoops            0                       # Number of snoops hitting in the snoop filter with a single holder of the requested data.
system.membus.snoop_filter.tot_requests         13190                       # Total number of requests made to the snoop filter.
system.membus.snoop_filter.tot_snoops               0                       # Total number of snoops made to the snoop filter.
system.membus.snoops                                0                       # Total snoops (count)
system.membus.trans_dist::ReadResp                636                       # Transaction distribution
system.membus.trans_dist::ReadExReq             12554                       # Transaction distribution
system.membus.trans_dist::ReadExResp            12554                       # Transaction distribution
system.membus.trans_dist::ReadSharedReq           636                       # Transaction distribution
system.tol2bus.pkt_count_system.cpu.icache.mem_side::system.l2.cpu_side         1308                       # Packet count per connected master and slave (bytes)
system.tol2bus.pkt_count_system.cpu.dcache.mem_side::system.l2.cpu_side        93449                       # Packet count per connected master and slave (bytes)
system.tol2bus.pkt_count::total                 94757                       # Packet count per connected master and slave (bytes)
system.tol2bus.pkt_size_system.cpu.icache.mem_side::system.l2.cpu_side        47168                       # Cumulative packet size per connected master and slave (bytes)
system.tol2bus.pkt_size_system.cpu.dcache.mem_side::system.l2.cpu_side      3960320                       # Cumulative packet size per connected master and slave (bytes)
system.tol2bus.pkt_size::total                4007488                       # Cumulative packet size per connected master and slave (bytes)
system.tol2bus.pwrStateResidencyTicks::UNDEFINED   4972271500                       # Cumulative time (in ticks) in various power states
system.tol2bus.reqLayer0.occupancy           61902500                       # Layer occupancy (ticks)
system.tol2bus.reqLayer0.utilization              1.2                       # Layer utilization (%)
system.tol2bus.respLayer0.occupancy            856999                       # Layer occupancy (ticks)
system.tol2bus.respLayer0.utilization             0.0                       # Layer utilization (%)
system.tol2bus.respLayer1.occupancy          47240492                       # Layer occupancy (ticks)
system.tol2bus.respLayer1.utilization             1.0                       # Layer utilization (%)
system.tol2bus.snoopTraffic                         0                       # Total snoop traffic (bytes)
system.tol2bus.snoop_fanout::samples            32062                       # Request fanout histogram
system.tol2bus.snoop_fanout::mean            0.001591                       # Request fanout histogram
system.tol2bus.snoop_fanout::stdev           0.039852                       # Request fanout histogram
system.tol2bus.snoop_fanout::underflows             0      0.00%      0.00% # Request fanout histogram
system.tol2bus.snoop_fanout::0                  32011     99.84%     99.84% # Request fanout histogram
system.tol2bus.snoop_fanout::1                     51      0.16%    100.00% # Request fanout histogram
system.tol2bus.snoop_fanout::2                      0      0.00%    100.00% # Request fanout histogram
system.tol2bus.snoop_fanout::overflows              0      0.00%    100.00% # Request fanout histogram
system.tol2bus.snoop_fanout::min_value              0                       # Request fanout histogram
system.tol2bus.snoop_fanout::max_value              1                       # Request fanout histogram
system.tol2bus.snoop_fanout::total              32062                       # Request fanout histogram
system.tol2bus.snoop_filter.hit_multi_requests           33                       # Number of requests hitting in the snoop filter with multiple (>1) holders of the requested data.
system.tol2bus.snoop_filter.hit_multi_snoops            0                       # Number of snoops hitting in the snoop filter with multiple (>1) holders of the requested data.
system.tol2bus.snoop_filter.hit_single_requests        30651                       # Number of requests hitting in the snoop filter with a single holder of the requested data.
system.tol2bus.snoop_filter.hit_single_snoops            0                       # Number of snoops hitting in the snoop filter with a single holder of the requested data.
system.tol2bus.snoop_filter.tot_requests        62695                       # Total number of requests made to the snoop filter.
system.tol2bus.snoop_filter.tot_snoops              0                       # Total number of snoops made to the snoop filter.
system.tol2bus.snoops                               0                       # Total snoops (count)
system.tol2bus.trans_dist::ReadResp             19492                       # Transaction distribution
system.tol2bus.trans_dist::WritebackDirty        30389                       # Transaction distribution
system.tol2bus.trans_dist::WritebackClean          166                       # Transaction distribution
system.tol2bus.trans_dist::CleanEvict              78                       # Transaction distribution
system.tol2bus.trans_dist::ReadExReq            12570                       # Transaction distribution
system.tol2bus.trans_dist::ReadExResp           12570                       # Transaction distribution
system.tol2bus.trans_dist::ReadCleanReq           571                       # Transaction distribution
system.tol2bus.trans_dist::ReadSharedReq        18921                       # Transaction distribution
system.voltage_domain.voltage                       1                       # Voltage in Volts

---------- End Simulation Statistics   ----------
