
---------- Begin Simulation Statistics ----------
final_tick                                  153103750                       # Number of ticks from beginning of simulation (restored from checkpoints and never reset)
host_inst_rate                                 327880                       # Simulator instruction rate (inst/s)
host_mem_usage                                 811452                       # Number of bytes of host memory used
host_op_rate                                   375032                       # Simulator op (including micro ops) rate (op/s)
host_seconds                                     0.03                       # Real time elapsed on the host
host_tick_rate                             5263473543                       # Simulator tick rate (ticks/s)
sim_freq                                 1000000000000                       # Frequency of simulated ticks
sim_insts                                        9361                       # Number of instructions simulated
sim_ops                                         10900                       # Number of ops (including micro ops) simulated
sim_seconds                                  0.000153                       # Number of seconds simulated
sim_ticks                                   153103750                       # Number of ticks simulated
system.clk_domain.clock                          1250                       # Clock period in ticks
system.clk_domain.voltage_domain.voltage            1                       # Voltage in Volts
system.cpu.Branches                              1883                       # Number of branches fetched
system.cpu.committedInsts                        9361                       # Number of instructions committed
system.cpu.committedOps                         10900                       # Number of ops (including micro ops) committed
system.cpu.dcache.LoadLockedReq_accesses::.cpu.data           17                       # number of LoadLockedReq accesses(hits+misses)
system.cpu.dcache.LoadLockedReq_accesses::total           17                       # number of LoadLockedReq accesses(hits+misses)
system.cpu.dcache.LoadLockedReq_avg_miss_latency::.cpu.data       197500                       # average LoadLockedReq miss latency
system.cpu.dcache.LoadLockedReq_avg_miss_latency::total       197500                       # average LoadLockedReq miss latency
system.cpu.dcache.LoadLockedReq_avg_mshr_miss_latency::.cpu.data       195000                       # average LoadLockedReq mshr miss latency
system.cpu.dcache.LoadLockedReq_avg_mshr_miss_latency::total       195000                       # average LoadLockedReq mshr miss latency
system.cpu.dcache.LoadLockedReq_hits::.cpu.data           16                       # number of LoadLockedReq hits
system.cpu.dcache.LoadLockedReq_hits::total           16                       # number of LoadLockedReq hits
system.cpu.dcache.LoadLockedReq_miss_latency::.cpu.data       197500                       # number of LoadLockedReq miss cycles
system.cpu.dcache.LoadLockedReq_miss_latency::total       197500                       # number of LoadLockedReq miss cycles
system.cpu.dcache.LoadLockedReq_miss_rate::.cpu.data     0.058824                       # miss rate for LoadLockedReq accesses
system.cpu.dcache.LoadLockedReq_miss_rate::total     0.058824                       # miss rate for LoadLockedReq accesses
system.cpu.dcache.LoadLockedReq_misses::.cpu.data            1                       # number of LoadLockedReq misses
system.cpu.dcache.LoadLockedReq_misses::total            1                       # number of LoadLockedReq misses
system.cpu.dcache.LoadLockedReq_mshr_miss_latency::.cpu.data       195000                       # number of LoadLockedReq MSHR miss cycles
system.cpu.dcache.LoadLockedReq_mshr_miss_latency::total       195000                       # number of LoadLockedReq MSHR miss cycles
system.cpu.dcache.LoadLockedReq_mshr_miss_rate::.cpu.data     0.058824                       # mshr miss rate for LoadLockedReq accesses
system.cpu.dcache.LoadLockedReq_mshr_miss_rate::total     0.058824                       # mshr miss rate for LoadLockedReq accesses
system.cpu.dcache.LoadLockedReq_mshr_misses::.cpu.data            1                       # number of LoadLockedReq MSHR misses
system.cpu.dcache.LoadLockedReq_mshr_misses::total            1                       # number of LoadLockedReq MSHR misses
system.cpu.dcache.ReadReq_accesses::.cpu.data         1626                       # number of ReadReq accesses(hits+misses)
system.cpu.dcache.ReadReq_accesses::total         1626                       # number of ReadReq accesses(hits+misses)
system.cpu.dcache.ReadReq_avg_miss_latency::.cpu.data       151250                       # average ReadReq miss latency
system.cpu.dcache.ReadReq_avg_miss_latency::total       151250                       # average ReadReq miss latency
system.cpu.dcache.ReadReq_avg_mshr_miss_latency::.cpu.data       148750                       # average ReadReq mshr miss latency
system.cpu.dcache.ReadReq_avg_mshr_miss_latency::total       148750                       # average ReadReq mshr miss latency
system.cpu.dcache.ReadReq_hits::.cpu.data         1495                       # number of ReadReq hits
system.cpu.dcache.ReadReq_hits::total            1495                       # number of ReadReq hits
system.cpu.dcache.ReadReq_miss_latency::.cpu.data     19813750                       # number of ReadReq miss cycles
system.cpu.dcache.ReadReq_miss_latency::total     19813750                       # number of ReadReq miss cycles
system.cpu.dcache.ReadReq_miss_rate::.cpu.data     0.080566                       # miss rate for ReadReq accesses
system.cpu.dcache.ReadReq_miss_rate::total     0.080566                       # miss rate for ReadReq accesses
system.cpu.dcache.ReadReq_misses::.cpu.data          131                       # number of ReadReq misses
system.cpu.dcache.ReadReq_misses::total           131                       # number of ReadReq misses
system.cpu.dcache.ReadReq_mshr_miss_latency::.cpu.data     19486250                       # number of ReadReq MSHR miss cycles
system.cpu.dcache.ReadReq_mshr_miss_latency::total     19486250                       # number of ReadReq MSHR miss cycles
system.cpu.dcache.ReadReq_mshr_miss_rate::.cpu.data     0.080566                       # mshr miss rate for ReadReq accesses
system.cpu.dcache.ReadReq_mshr_miss_rate::total     0.080566                       # mshr miss rate for ReadReq accesses
system.cpu.dcache.ReadReq_mshr_misses::.cpu.data          131                       # number of ReadReq MSHR misses
system.cpu.dcache.ReadReq_mshr_misses::total          131                       # number of ReadReq MSHR misses
system.cpu.dcache.StoreCondReq_accesses::.cpu.data           17                       # number of StoreCondReq accesses(hits+misses)
system.cpu.dcache.StoreCondReq_accesses::total           17                       # number of StoreCondReq accesses(hits+misses)
system.cpu.dcache.StoreCondReq_hits::.cpu.data           17                       # number of StoreCondReq hits
system.cpu.dcache.StoreCondReq_hits::total           17                       # number of StoreCondReq hits
system.cpu.dcache.WriteReq_accesses::.cpu.data         1854                       # number of WriteReq accesses(hits+misses)
system.cpu.dcache.WriteReq_accesses::total         1854                       # number of WriteReq accesses(hits+misses)
system.cpu.dcache.WriteReq_avg_miss_latency::.cpu.data 184867.957746                       # average WriteReq miss latency
system.cpu.dcache.WriteReq_avg_miss_latency::total 184867.957746                       # average WriteReq miss latency
system.cpu.dcache.WriteReq_avg_mshr_miss_latency::.cpu.data 182367.957746                       # average WriteReq mshr miss latency
system.cpu.dcache.WriteReq_avg_mshr_miss_latency::total 182367.957746                       # average WriteReq mshr miss latency
system.cpu.dcache.WriteReq_hits::.cpu.data         1712                       # number of WriteReq hits
system.cpu.dcache.WriteReq_hits::total           1712                       # number of WriteReq hits
system.cpu.dcache.WriteReq_miss_latency::.cpu.data     26251250                       # number of WriteReq miss cycles
system.cpu.dcache.WriteReq_miss_latency::total     26251250                       # number of WriteReq miss cycles
system.cpu.dcache.WriteReq_miss_rate::.cpu.data     0.076591                       # miss rate for WriteReq accesses
system.cpu.dcache.WriteReq_miss_rate::total     0.076591                       # miss rate for WriteReq accesses
system.cpu.dcache.WriteReq_misses::.cpu.data          142                       # number of WriteReq misses
system.cpu.dcache.WriteReq_misses::total          142                       # number of WriteReq misses
system.cpu.dcache.WriteReq_mshr_miss_latency::.cpu.data     25896250                       # number of WriteReq MSHR miss cycles
system.cpu.dcache.WriteReq_mshr_miss_latency::total     25896250                       # number of WriteReq MSHR miss cycles
system.cpu.dcache.WriteReq_mshr_miss_rate::.cpu.data     0.076591                       # mshr miss rate for WriteReq accesses
system.cpu.dcache.WriteReq_mshr_miss_rate::total     0.076591                       # mshr miss rate for WriteReq accesses
system.cpu.dcache.WriteReq_mshr_misses::.cpu.data          142                       # number of WriteReq MSHR misses
system.cpu.dcache.WriteReq_mshr_misses::total          142                       # number of WriteReq MSHR misses
system.cpu.dcache.avg_blocked_cycles::no_mshrs          nan                       # average number of cycles each access was blocked
system.cpu.dcache.avg_blocked_cycles::no_targets          nan                       # average number of cycles each access was blocked
system.cpu.dcache.blocked::no_mshrs                 0                       # number of cycles access was blocked
system.cpu.dcache.blocked::no_targets               0                       # number of cycles access was blocked
system.cpu.dcache.blocked_cycles::no_mshrs            0                       # number of cycles access was blocked
system.cpu.dcache.blocked_cycles::no_targets            0                       # number of cycles access was blocked
system.cpu.dcache.demand_accesses::.cpu.data         3480                       # number of demand (read+write) accesses
system.cpu.dcache.demand_accesses::total         3480                       # number of demand (read+write) accesses
system.cpu.dcache.demand_avg_miss_latency::.cpu.data 168736.263736                       # average overall miss latency
system.cpu.dcache.demand_avg_miss_latency::total 168736.263736                       # average overall miss latency
system.cpu.dcache.demand_avg_mshr_miss_latency::.cpu.data 166236.263736                       # average overall mshr miss latency
system.cpu.dcache.demand_avg_mshr_miss_latency::total 166236.263736                       # average overall mshr miss latency
system.cpu.dcache.demand_hits::.cpu.data         3207                       # number of demand (read+write) hits
system.cpu.dcache.demand_hits::total             3207                       # number of demand (read+write) hits
system.cpu.dcache.demand_miss_latency::.cpu.data     46065000                       # number of demand (read+write) miss cycles
system.cpu.dcache.demand_miss_latency::total     46065000                       # number of demand (read+write) miss cycles
system.cpu.dcache.demand_miss_rate::.cpu.data     0.078448                       # miss rate for demand accesses
system.cpu.dcache.demand_miss_rate::total     0.078448                       # miss rate for demand accesses
system.cpu.dcache.demand_misses::.cpu.data          273                       # number of demand (read+write) misses
system.cpu.dcache.demand_misses::total            273                       # number of demand (read+write) misses
system.cpu.dcache.demand_mshr_miss_latency::.cpu.data     45382500                       # number of demand (read+write) MSHR miss cycles
system.cpu.dcache.demand_mshr_miss_latency::total     45382500                       # number of demand (read+write) MSHR miss cycles
system.cpu.dcache.demand_mshr_miss_rate::.cpu.data     0.078448                       # mshr miss rate for demand accesses
system.cpu.dcache.demand_mshr_miss_rate::total     0.078448                       # mshr miss rate for demand accesses
system.cpu.dcache.demand_mshr_misses::.cpu.data          273                       # number of demand (read+write) MSHR misses
system.cpu.dcache.demand_mshr_misses::total          273                       # number of demand (read+write) MSHR misses
system.cpu.dcache.overall_accesses::.cpu.data         3480                       # number of overall (read+write) accesses
system.cpu.dcache.overall_accesses::total         3480                       # number of overall (read+write) accesses
system.cpu.dcache.overall_avg_miss_latency::.cpu.data 168736.263736                       # average overall miss latency
system.cpu.dcache.overall_avg_miss_latency::total 168736.263736                       # average overall miss latency
system.cpu.dcache.overall_avg_mshr_miss_latency::.cpu.data 166236.263736                       # average overall mshr miss latency
system.cpu.dcache.overall_avg_mshr_miss_latency::total 166236.263736                       # average overall mshr miss latency
system.cpu.dcache.overall_hits::.cpu.data         3207                       # number of overall hits
system.cpu.dcache.overall_hits::total            3207                       # number of overall hits
system.cpu.dcache.overall_miss_latency::.cpu.data     46065000                       # number of overall miss cycles
system.cpu.dcache.overall_miss_latency::total     46065000                       # number of overall miss cycles
system.cpu.dcache.overall_miss_rate::.cpu.data     0.078448                       # miss rate for overall accesses
system.cpu.dcache.overall_miss_rate::total     0.078448                       # miss rate for overall accesses
system.cpu.dcache.overall_misses::.cpu.data          273                       # number of overall misses
system.cpu.dcache.overall_misses::total           273                       # number of overall misses
system.cpu.dcache.overall_mshr_miss_latency::.cpu.data     45382500                       # number of overall MSHR miss cycles
system.cpu.dcache.overall_mshr_miss_latency::total     45382500                       # number of overall MSHR miss cycles
system.cpu.dcache.overall_mshr_miss_rate::.cpu.data     0.078448                       # mshr miss rate for overall accesses
system.cpu.dcache.overall_mshr_miss_rate::total     0.078448                       # mshr miss rate for overall accesses
system.cpu.dcache.overall_mshr_misses::.cpu.data          273                       # number of overall MSHR misses
system.cpu.dcache.overall_mshr_misses::total          273                       # number of overall MSHR misses
system.cpu.dcache.pwrStateResidencyTicks::UNDEFINED    153103750                       # Cumulative time (in ticks) in various power states
system.cpu.dcache.replacements                    157                       # number of replacements
system.cpu.dcache.tags.age_task_id_blocks_1024::0           11                       # Occupied blocks per task id
system.cpu.dcache.tags.age_task_id_blocks_1024::1           81                       # Occupied blocks per task id
system.cpu.dcache.tags.age_task_id_blocks_1024::2           25                       # Occupied blocks per task id
system.cpu.dcache.tags.avg_refs             12.824818                       # Average number of references to valid blocks.
system.cpu.dcache.tags.data_accesses             7302                       # Number of data accesses
system.cpu.dcache.tags.occ_blocks::.cpu.data    88.661749                       # Average occupied blocks per requestor
system.cpu.dcache.tags.occ_percent::.cpu.data     0.692670                       # Average percentage of cache occupancy
system.cpu.dcache.tags.occ_percent::total     0.692670                       # Average percentage of cache occupancy
system.cpu.dcache.tags.occ_task_id_blocks::1024          117                       # Occupied blocks per task id
system.cpu.dcache.tags.occ_task_id_percent::1024     0.914062                       # Percentage of cache occupancy per task id
system.cpu.dcache.tags.pwrStateResidencyTicks::UNDEFINED    153103750                       # Cumulative time (in ticks) in various power states
system.cpu.dcache.tags.sampled_refs               274                       # Sample count of references to valid blocks.
system.cpu.dcache.tags.tag_accesses              7302                       # Number of tag accesses
system.cpu.dcache.tags.tagsinuse            88.661749                       # Cycle average of tags in use
system.cpu.dcache.tags.total_refs                3514                       # Total number of references to valid blocks.
system.cpu.dcache.tags.warmup_cycle            400000                       # Cycle when the warmup percentage was hit.
system.cpu.dcache.writebacks::.writebacks           99                       # number of writebacks
system.cpu.dcache.writebacks::total                99                       # number of writebacks
system.cpu.dstage2_mmu.stage2_tlb.accesses            0                       # DTB accesses
system.cpu.dstage2_mmu.stage2_tlb.align_faults            0                       # Number of TLB faults due to alignment restrictions
system.cpu.dstage2_mmu.stage2_tlb.domain_faults            0                       # Number of TLB faults due to domain restrictions
system.cpu.dstage2_mmu.stage2_tlb.flush_entries            0                       # Number of entries that have been flushed from TLB
system.cpu.dstage2_mmu.stage2_tlb.flush_tlb            0                       # Number of times complete TLB was flushed
system.cpu.dstage2_mmu.stage2_tlb.flush_tlb_asid            0                       # Number of times TLB was flushed by ASID
system.cpu.dstage2_mmu.stage2_tlb.flush_tlb_mva            0                       # Number of times TLB was flushed by MVA
system.cpu.dstage2_mmu.stage2_tlb.flush_tlb_mva_asid            0                       # Number of times TLB was flushed by MVA & ASID
system.cpu.dstage2_mmu.stage2_tlb.hits              0                       # DTB hits
system.cpu.dstage2_mmu.stage2_tlb.inst_accesses            0                       # ITB inst accesses
system.cpu.dstage2_mmu.stage2_tlb.inst_hits            0                       # ITB inst hits
system.cpu.dstage2_mmu.stage2_tlb.inst_misses            0                       # ITB inst misses
system.cpu.dstage2_mmu.stage2_tlb.misses            0                       # DTB misses
system.cpu.dstage2_mmu.stage2_tlb.perms_faults            0                       # Number of TLB faults due to permissions restrictions
system.cpu.dstage2_mmu.stage2_tlb.prefetch_faults            0                       # Number of TLB faults due to prefetch
system.cpu.dstage2_mmu.stage2_tlb.read_accesses            0                       # DTB read accesses
system.cpu.dstage2_mmu.stage2_tlb.read_hits            0                       # DTB read hits
system.cpu.dstage2_mmu.stage2_tlb.read_misses            0                       # DTB read misses
system.cpu.dstage2_mmu.stage2_tlb.walker.pwrStateResidencyTicks::UNDEFINED    153103750                       # Cumulative time (in ticks) in various power states
system.cpu.dstage2_mmu.stage2_tlb.walker.walkRequestOrigin_Requested::Data            0                       # Table walker requests started/completed, data/inst
system.cpu.dstage2_mmu.stage2_tlb.walker.walkRequestOrigin_Requested::Inst            0                       # Table walker requests started/completed, data/inst
system.cpu.dstage2_mmu.stage2_tlb.walker.walkRequestOrigin_Requested::total            0                       # Table walker requests started/completed, data/inst
system.cpu.dstage2_mmu.stage2_tlb.walker.walkRequestOrigin_Completed::Data            0                       # Table walker requests started/completed, data/inst
system.cpu.dstage2_mmu.stage2_tlb.walker.walkRequestOrigin_Completed::Inst            0                       # Table walker requests started/completed, data/inst
system.cpu.dstage2_mmu.stage2_tlb.walker.walkRequestOrigin_Completed::total            0                       # Table walker requests started/completed, data/inst
system.cpu.dstage2_mmu.stage2_tlb.walker.walkRequestOrigin::total            0                       # Table walker requests started/completed, data/inst
system.cpu.dstage2_mmu.stage2_tlb.walker.walks            0                       # Table walker walks requested
system.cpu.dstage2_mmu.stage2_tlb.write_accesses            0                       # DTB write accesses
system.cpu.dstage2_mmu.stage2_tlb.write_hits            0                       # DTB write hits
system.cpu.dstage2_mmu.stage2_tlb.write_misses            0                       # DTB write misses
system.cpu.dtb.accesses                             0                       # DTB accesses
system.cpu.dtb.align_faults                         0                       # Number of TLB faults due to alignment restrictions
system.cpu.dtb.domain_faults                        0                       # Number of TLB faults due to domain restrictions
system.cpu.dtb.flush_entries                        0                       # Number of entries that have been flushed from TLB
system.cpu.dtb.flush_tlb                            0                       # Number of times complete TLB was flushed
system.cpu.dtb.flush_tlb_asid                       0                       # Number of times TLB was flushed by ASID
system.cpu.dtb.flush_tlb_mva                        0                       # Number of times TLB was flushed by MVA
system.cpu.dtb.flush_tlb_mva_asid                   0                       # Number of times TLB was flushed by MVA & ASID
system.cpu.dtb.hits                                 0                       # DTB hits
system.cpu.dtb.inst_accesses                        0                       # ITB inst accesses
system.cpu.dtb.inst_hits                            0                       # ITB inst hits
system.cpu.dtb.inst_misses                          0                       # ITB inst misses
system.cpu.dtb.misses                               0                       # DTB misses
system.cpu.dtb.perms_faults                         0                       # Number of TLB faults due to permissions restrictions
system.cpu.dtb.prefetch_faults                      0                       # Number of TLB faults due to prefetch
system.cpu.dtb.read_accesses                        0                       # DTB read accesses
system.cpu.dtb.read_hits                            0                       # DTB read hits
system.cpu.dtb.read_misses                          0                       # DTB read misses
system.cpu.dtb.walker.pwrStateResidencyTicks::UNDEFINED    153103750                       # Cumulative time (in ticks) in various power states
system.cpu.dtb.walker.walkRequestOrigin_Requested::Data            0                       # Table walker requests started/completed, data/inst
system.cpu.dtb.walker.walkRequestOrigin_Requested::Inst            0                       # Table walker requests started/completed, data/inst
system.cpu.dtb.walker.walkRequestOrigin_Requested::total            0                       # Table walker requests started/completed, data/inst
system.cpu.dtb.walker.walkRequestOrigin_Completed::Data            0                       # Table walker requests started/completed, data/inst
system.cpu.dtb.walker.walkRequestOrigin_Completed::Inst            0                       # Table walker requests started/completed, data/inst
system.cpu.dtb.walker.walkRequestOrigin_Completed::total            0                       # Table walker requests started/completed, data/inst
system.cpu.dtb.walker.walkRequestOrigin::total            0                       # Table walker requests started/completed, data/inst
system.cpu.dtb.walker.walks                         0                       # Table walker walks requested
system.cpu.dtb.write_accesses                       0                       # DTB write accesses
system.cpu.dtb.write_hits                           0                       # DTB write hits
system.cpu.dtb.write_misses                         0                       # DTB write misses
system.cpu.icache.ReadReq_accesses::.cpu.inst         9373                       # number of ReadReq accesses(hits+misses)
system.cpu.icache.ReadReq_accesses::total         9373                       # number of ReadReq accesses(hits+misses)
system.cpu.icache.ReadReq_avg_miss_latency::.cpu.inst 179832.746479                       # average ReadReq miss latency
system.cpu.icache.ReadReq_avg_miss_latency::total 179832.746479                       # average ReadReq miss latency
system.cpu.icache.ReadReq_avg_mshr_miss_latency::.cpu.inst 177332.746479                       # average ReadReq mshr miss latency
system.cpu.icache.ReadReq_avg_mshr_miss_latency::total 177332.746479                       # average ReadReq mshr miss latency
system.cpu.icache.ReadReq_hits::.cpu.inst         8947                       # number of ReadReq hits
system.cpu.icache.ReadReq_hits::total            8947                       # number of ReadReq hits
system.cpu.icache.ReadReq_miss_latency::.cpu.inst     76608750                       # number of ReadReq miss cycles
system.cpu.icache.ReadReq_miss_latency::total     76608750                       # number of ReadReq miss cycles
system.cpu.icache.ReadReq_miss_rate::.cpu.inst     0.045450                       # miss rate for ReadReq accesses
system.cpu.icache.ReadReq_miss_rate::total     0.045450                       # miss rate for ReadReq accesses
system.cpu.icache.ReadReq_misses::.cpu.inst          426                       # number of ReadReq misses
system.cpu.icache.ReadReq_misses::total           426                       # number of ReadReq misses
system.cpu.icache.ReadReq_mshr_miss_latency::.cpu.inst     75543750                       # number of ReadReq MSHR miss cycles
system.cpu.icache.ReadReq_mshr_miss_latency::total     75543750                       # number of ReadReq MSHR miss cycles
system.cpu.icache.ReadReq_mshr_miss_rate::.cpu.inst     0.045450                       # mshr miss rate for ReadReq accesses
system.cpu.icache.ReadReq_mshr_miss_rate::total     0.045450                       # mshr miss rate for ReadReq accesses
system.cpu.icache.ReadReq_mshr_misses::.cpu.inst          426                       # number of ReadReq MSHR misses
system.cpu.icache.ReadReq_mshr_misses::total          426                       # number of ReadReq MSHR misses
system.cpu.icache.avg_blocked_cycles::no_mshrs          nan                       # average number of cycles each access was blocked
system.cpu.icache.avg_blocked_cycles::no_targets          nan                       # average number of cycles each access was blocked
system.cpu.icache.blocked::no_mshrs                 0                       # number of cycles access was blocked
system.cpu.icache.blocked::no_targets               0                       # number of cycles access was blocked
system.cpu.icache.blocked_cycles::no_mshrs            0                       # number of cycles access was blocked
system.cpu.icache.blocked_cycles::no_targets            0                       # number of cycles access was blocked
system.cpu.icache.demand_accesses::.cpu.inst         9373                       # number of demand (read+write) accesses
system.cpu.icache.demand_accesses::total         9373                       # number of demand (read+write) accesses
system.cpu.icache.demand_avg_miss_latency::.cpu.inst 179832.746479                       # average overall miss latency
system.cpu.icache.demand_avg_miss_latency::total 179832.746479                       # average overall miss latency
system.cpu.icache.demand_avg_mshr_miss_latency::.cpu.inst 177332.746479                       # average overall mshr miss latency
system.cpu.icache.demand_avg_mshr_miss_latency::total 177332.746479                       # average overall mshr miss latency
system.cpu.icache.demand_hits::.cpu.inst         8947                       # number of demand (read+write) hits
system.cpu.icache.demand_hits::total             8947                       # number of demand (read+write) hits
system.cpu.icache.demand_miss_latency::.cpu.inst     76608750                       # number of demand (read+write) miss cycles
system.cpu.icache.demand_miss_latency::total     76608750                       # number of demand (read+write) miss cycles
system.cpu.icache.demand_miss_rate::.cpu.inst     0.045450                       # miss rate for demand accesses
system.cpu.icache.demand_miss_rate::total     0.045450                       # miss rate for demand accesses
system.cpu.icache.demand_misses::.cpu.inst          426                       # number of demand (read+write) misses
system.cpu.icache.demand_misses::total            426                       # number of demand (read+write) misses
system.cpu.icache.demand_mshr_miss_latency::.cpu.inst     75543750                       # number of demand (read+write) MSHR miss cycles
system.cpu.icache.demand_mshr_miss_latency::total     75543750                       # number of demand (read+write) MSHR miss cycles
system.cpu.icache.demand_mshr_miss_rate::.cpu.inst     0.045450                       # mshr miss rate for demand accesses
system.cpu.icache.demand_mshr_miss_rate::total     0.045450                       # mshr miss rate for demand accesses
system.cpu.icache.demand_mshr_misses::.cpu.inst          426                       # number of demand (read+write) MSHR misses
system.cpu.icache.demand_mshr_misses::total          426                       # number of demand (read+write) MSHR misses
system.cpu.icache.overall_accesses::.cpu.inst         9373                       # number of overall (read+write) accesses
system.cpu.icache.overall_accesses::total         9373                       # number of overall (read+write) accesses
system.cpu.icache.overall_avg_miss_latency::.cpu.inst 179832.746479                       # average overall miss latency
system.cpu.icache.overall_avg_miss_latency::total 179832.746479                       # average overall miss latency
system.cpu.icache.overall_avg_mshr_miss_latency::.cpu.inst 177332.746479                       # average overall mshr miss latency
system.cpu.icache.overall_avg_mshr_miss_latency::total 177332.746479                       # average overall mshr miss latency
system.cpu.icache.overall_hits::.cpu.inst         8947                       # number of overall hits
system.cpu.icache.overall_hits::total            8947                       # number of overall hits
system.cpu.icache.overall_miss_latency::.cpu.inst     76608750                       # number of overall miss cycles
system.cpu.icache.overall_miss_latency::total     76608750                       # number of overall miss cycles
system.cpu.icache.overall_miss_rate::.cpu.inst     0.045450                       # miss rate for overall accesses
system.cpu.icache.overall_miss_rate::total     0.045450                       # miss rate for overall accesses
system.cpu.icache.overall_misses::.cpu.inst          426                       # number of overall misses
system.cpu.icache.overall_misses::total           426                       # number of overall misses
system.cpu.icache.overall_mshr_miss_latency::.cpu.inst     75543750                       # number of overall MSHR miss cycles
system.cpu.icache.overall_mshr_miss_latency::total     75543750                       # number of overall MSHR miss cycles
system.cpu.icache.overall_mshr_miss_rate::.cpu.inst     0.045450                       # mshr miss rate for overall accesses
system.cpu.icache.overall_mshr_miss_rate::total     0.045450                       # mshr miss rate for overall accesses
system.cpu.icache.overall_mshr_misses::.cpu.inst          426                       # number of overall MSHR misses
system.cpu.icache.overall_mshr_misses::total          426                       # number of overall MSHR misses
system.cpu.icache.pwrStateResidencyTicks::UNDEFINED    153103750                       # Cumulative time (in ticks) in various power states
system.cpu.icache.replacements                    191                       # number of replacements
system.cpu.icache.tags.age_task_id_blocks_1024::0           38                       # Occupied blocks per task id
system.cpu.icache.tags.age_task_id_blocks_1024::1          155                       # Occupied blocks per task id
system.cpu.icache.tags.age_task_id_blocks_1024::2           42                       # Occupied blocks per task id
system.cpu.icache.tags.avg_refs             22.002347                       # Average number of references to valid blocks.
system.cpu.icache.tags.data_accesses            19172                       # Number of data accesses
system.cpu.icache.tags.occ_blocks::.cpu.inst   145.851686                       # Average occupied blocks per requestor
system.cpu.icache.tags.occ_percent::.cpu.inst     0.569733                       # Average percentage of cache occupancy
system.cpu.icache.tags.occ_percent::total     0.569733                       # Average percentage of cache occupancy
system.cpu.icache.tags.occ_task_id_blocks::1024          235                       # Occupied blocks per task id
system.cpu.icache.tags.occ_task_id_percent::1024     0.917969                       # Percentage of cache occupancy per task id
system.cpu.icache.tags.pwrStateResidencyTicks::UNDEFINED    153103750                       # Cumulative time (in ticks) in various power states
system.cpu.icache.tags.sampled_refs               426                       # Sample count of references to valid blocks.
system.cpu.icache.tags.tag_accesses             19172                       # Number of tag accesses
system.cpu.icache.tags.tagsinuse           145.851686                       # Cycle average of tags in use
system.cpu.icache.tags.total_refs                9373                       # Total number of references to valid blocks.
system.cpu.icache.tags.warmup_cycle            195000                       # Cycle when the warmup percentage was hit.
system.cpu.icache.writebacks::.writebacks          191                       # number of writebacks
system.cpu.icache.writebacks::total               191                       # number of writebacks
system.cpu.idle_fraction                     0.000000                       # Percentage of idle cycles
system.cpu.istage2_mmu.stage2_tlb.accesses            0                       # DTB accesses
system.cpu.istage2_mmu.stage2_tlb.align_faults            0                       # Number of TLB faults due to alignment restrictions
system.cpu.istage2_mmu.stage2_tlb.domain_faults            0                       # Number of TLB faults due to domain restrictions
system.cpu.istage2_mmu.stage2_tlb.flush_entries            0                       # Number of entries that have been flushed from TLB
system.cpu.istage2_mmu.stage2_tlb.flush_tlb            0                       # Number of times complete TLB was flushed
system.cpu.istage2_mmu.stage2_tlb.flush_tlb_asid            0                       # Number of times TLB was flushed by ASID
system.cpu.istage2_mmu.stage2_tlb.flush_tlb_mva            0                       # Number of times TLB was flushed by MVA
system.cpu.istage2_mmu.stage2_tlb.flush_tlb_mva_asid            0                       # Number of times TLB was flushed by MVA & ASID
system.cpu.istage2_mmu.stage2_tlb.hits              0                       # DTB hits
system.cpu.istage2_mmu.stage2_tlb.inst_accesses            0                       # ITB inst accesses
system.cpu.istage2_mmu.stage2_tlb.inst_hits            0                       # ITB inst hits
system.cpu.istage2_mmu.stage2_tlb.inst_misses            0                       # ITB inst misses
system.cpu.istage2_mmu.stage2_tlb.misses            0                       # DTB misses
system.cpu.istage2_mmu.stage2_tlb.perms_faults            0                       # Number of TLB faults due to permissions restrictions
system.cpu.istage2_mmu.stage2_tlb.prefetch_faults            0                       # Number of TLB faults due to prefetch
system.cpu.istage2_mmu.stage2_tlb.read_accesses            0                       # DTB read accesses
system.cpu.istage2_mmu.stage2_tlb.read_hits            0                       # DTB read hits
system.cpu.istage2_mmu.stage2_tlb.read_misses            0                       # DTB read misses
system.cpu.istage2_mmu.stage2_tlb.walker.pwrStateResidencyTicks::UNDEFINED    153103750                       # Cumulative time (in ticks) in various power states
system.cpu.istage2_mmu.stage2_tlb.walker.walkRequestOrigin_Requested::Data            0                       # Table walker requests started/completed, data/inst
system.cpu.istage2_mmu.stage2_tlb.walker.walkRequestOrigin_Requested::Inst            0                       # Table walker requests started/completed, data/inst
system.cpu.istage2_mmu.stage2_tlb.walker.walkRequestOrigin_Requested::total            0                       # Table walker requests started/completed, data/inst
system.cpu.istage2_mmu.stage2_tlb.walker.walkRequestOrigin_Completed::Data            0                       # Table walker requests started/completed, data/inst
system.cpu.istage2_mmu.stage2_tlb.walker.walkRequestOrigin_Completed::Inst            0                       # Table walker requests started/completed, data/inst
system.cpu.istage2_mmu.stage2_tlb.walker.walkRequestOrigin_Completed::total            0                       # Table walker requests started/completed, data/inst
system.cpu.istage2_mmu.stage2_tlb.walker.walkRequestOrigin::total            0                       # Table walker requests started/completed, data/inst
system.cpu.istage2_mmu.stage2_tlb.walker.walks            0                       # Table walker walks requested
system.cpu.istage2_mmu.stage2_tlb.write_accesses            0                       # DTB write accesses
system.cpu.istage2_mmu.stage2_tlb.write_hits            0                       # DTB write hits
system.cpu.istage2_mmu.stage2_tlb.write_misses            0                       # DTB write misses
system.cpu.itb.accesses                             0                       # DTB accesses
system.cpu.itb.align_faults                         0                       # Number of TLB faults due to alignment restrictions
system.cpu.itb.domain_faults                        0                       # Number of TLB faults due to domain restrictions
system.cpu.itb.flush_entries                        0                       # Number of entries that have been flushed from TLB
system.cpu.itb.flush_tlb                            0                       # Number of times complete TLB was flushed
system.cpu.itb.flush_tlb_asid                       0                       # Number of times TLB was flushed by ASID
system.cpu.itb.flush_tlb_mva                        0                       # Number of times TLB was flushed by MVA
system.cpu.itb.flush_tlb_mva_asid                   0                       # Number of times TLB was flushed by MVA & ASID
system.cpu.itb.hits                                 0                       # DTB hits
system.cpu.itb.inst_accesses                        0                       # ITB inst accesses
system.cpu.itb.inst_hits                            0                       # ITB inst hits
system.cpu.itb.inst_misses                          0                       # ITB inst misses
system.cpu.itb.misses                               0                       # DTB misses
system.cpu.itb.perms_faults                         0                       # Number of TLB faults due to permissions restrictions
system.cpu.itb.prefetch_faults                      0                       # Number of TLB faults due to prefetch
system.cpu.itb.read_accesses                        0                       # DTB read accesses
system.cpu.itb.read_hits                            0                       # DTB read hits
system.cpu.itb.read_misses                          0                       # DTB read misses
system.cpu.itb.walker.pwrStateResidencyTicks::UNDEFINED    153103750                       # Cumulative time (in ticks) in various power states
system.cpu.itb.walker.walkRequestOrigin_Requested::Data            0                       # Table walker requests started/completed, data/inst
system.cpu.itb.walker.walkRequestOrigin_Requested::Inst            0                       # Table walker requests started/completed, data/inst
system.cpu.itb.walker.walkRequestOrigin_Requested::total            0                       # Table walker requests started/completed, data/inst
system.cpu.itb.walker.walkRequestOrigin_Completed::Data            0                       # Table walker requests started/completed, data/inst
system.cpu.itb.walker.walkRequestOrigin_Completed::Inst            0                       # Table walker requests started/completed, data/inst
system.cpu.itb.walker.walkRequestOrigin_Completed::total            0                       # Table walker requests started/completed, data/inst
system.cpu.itb.walker.walkRequestOrigin::total            0                       # Table walker requests started/completed, data/inst
system.cpu.itb.walker.walks                         0                       # Table walker walks requested
system.cpu.itb.write_accesses                       0                       # DTB write accesses
system.cpu.itb.write_hits                           0                       # DTB write hits
system.cpu.itb.write_misses                         0                       # DTB write misses
system.cpu.not_idle_fraction                 1.000000                       # Percentage of non-idle cycles
system.cpu.numCycles                           122483                       # number of cpu cycles simulated
system.cpu.numWorkItemsCompleted                    0                       # number of work items this cpu completed
system.cpu.numWorkItemsStarted                      0                       # number of work items this cpu started
system.cpu.num_busy_cycles               122482.999200                       # Number of busy cycles
system.cpu.num_cc_register_reads                 3372                       # number of times the CC registers were read
system.cpu.num_cc_register_writes                3254                       # number of times the CC registers were written
system.cpu.num_conditional_control_insts         1458                       # number of instructions that are conditional controls
system.cpu.num_fp_alu_accesses                      0                       # Number of float alu accesses
system.cpu.num_fp_insts                             0                       # number of float instructions
system.cpu.num_fp_register_reads                    0                       # number of times the floating registers were read
system.cpu.num_fp_register_writes                   0                       # number of times the floating registers were written
system.cpu.num_func_calls                         272                       # number of times a function call or return occured
system.cpu.num_idle_cycles                   0.000800                       # Number of idle cycles
system.cpu.num_int_alu_accesses                  9490                       # Number of integer alu accesses
system.cpu.num_int_insts                         9490                       # number of integer instructions
system.cpu.num_int_register_reads               14917                       # number of times the integer registers were read
system.cpu.num_int_register_writes               7284                       # number of times the integer registers were written
system.cpu.num_load_insts                        1628                       # Number of load instructions
system.cpu.num_mem_refs                          3500                       # number of memory refs
system.cpu.num_store_insts                       1872                       # Number of store instructions
system.cpu.num_vec_alu_accesses                  1019                       # Number of vector alu accesses
system.cpu.num_vec_insts                         1019                       # number of vector instructions
system.cpu.num_vec_register_reads                 958                       # number of times the vector registers were read
system.cpu.num_vec_register_writes                688                       # number of times the vector registers were written
system.cpu.op_class::No_OpClass                     5      0.05%      0.05% # Class of executed instruction
system.cpu.op_class::IntAlu                      6979     63.96%     64.00% # Class of executed instruction
system.cpu.op_class::IntMult                       40      0.37%     64.37% # Class of executed instruction
system.cpu.op_class::IntDiv                        10      0.09%     64.46% # Class of executed instruction
system.cpu.op_class::FloatAdd                     100      0.92%     65.38% # Class of executed instruction
system.cpu.op_class::FloatCmp                       2      0.02%     65.40% # Class of executed instruction
system.cpu.op_class::FloatCvt                     100      0.92%     66.31% # Class of executed instruction
system.cpu.op_class::FloatMult                      0      0.00%     66.31% # Class of executed instruction
system.cpu.op_class::FloatMultAcc                 100      0.92%     67.23% # Class of executed instruction
system.cpu.op_class::FloatDiv                       0      0.00%     67.23% # Class of executed instruction
system.cpu.op_class::FloatMisc                      4      0.04%     67.27% # Class of executed instruction
system.cpu.op_class::FloatSqrt                      0      0.00%     67.27% # Class of executed instruction
system.cpu.op_class::SimdAdd                       19      0.17%     67.44% # Class of executed instruction
system.cpu.op_class::SimdAddAcc                     0      0.00%     67.44% # Class of executed instruction
system.cpu.op_class::SimdAlu                       18      0.16%     67.60% # Class of executed instruction
system.cpu.op_class::SimdCmp                       20      0.18%     67.79% # Class of executed instruction
system.cpu.op_class::SimdCvt                        0      0.00%     67.79% # Class of executed instruction
system.cpu.op_class::SimdMisc                      15      0.14%     67.93% # Class of executed instruction
system.cpu.op_class::SimdMult                       0      0.00%     67.93% # Class of executed instruction
system.cpu.op_class::SimdMultAcc                    0      0.00%     67.93% # Class of executed instruction
system.cpu.op_class::SimdShift                      0      0.00%     67.93% # Class of executed instruction
system.cpu.op_class::SimdShiftAcc                   0      0.00%     67.93% # Class of executed instruction
system.cpu.op_class::SimdDiv                        0      0.00%     67.93% # Class of executed instruction
system.cpu.op_class::SimdSqrt                       0      0.00%     67.93% # Class of executed instruction
system.cpu.op_class::SimdFloatAdd                   0      0.00%     67.93% # Class of executed instruction
system.cpu.op_class::SimdFloatAlu                   0      0.00%     67.93% # Class of executed instruction
system.cpu.op_class::SimdFloatCmp                   0      0.00%     67.93% # Class of executed instruction
system.cpu.op_class::SimdFloatCvt                   0      0.00%     67.93% # Class of executed instruction
system.cpu.op_class::SimdFloatDiv                   0      0.00%     67.93% # Class of executed instruction
system.cpu.op_class::SimdFloatMisc                  0      0.00%     67.93% # Class of executed instruction
system.cpu.op_class::SimdFloatMult                  0      0.00%     67.93% # Class of executed instruction
system.cpu.op_class::SimdFloatMultAcc               0      0.00%     67.93% # Class of executed instruction
system.cpu.op_class::SimdFloatSqrt                  0      0.00%     67.93% # Class of executed instruction
system.cpu.op_class::SimdReduceAdd                  0      0.00%     67.93% # Class of executed instruction
system.cpu.op_class::SimdReduceAlu                  0      0.00%     67.93% # Class of executed instruction
system.cpu.op_class::SimdReduceCmp                  0      0.00%     67.93% # Class of executed instruction
system.cpu.op_class::SimdFloatReduceAdd             0      0.00%     67.93% # Class of executed instruction
system.cpu.op_class::SimdFloatReduceCmp             0      0.00%     67.93% # Class of executed instruction
system.cpu.op_class::SimdAes                        0      0.00%     67.93% # Class of executed instruction
system.cpu.op_class::SimdAesMix                     0      0.00%     67.93% # Class of executed instruction
system.cpu.op_class::SimdSha1Hash                   0      0.00%     67.93% # Class of executed instruction
system.cpu.op_class::SimdSha1Hash2                  0      0.00%     67.93% # Class of executed instruction
system.cpu.op_class::SimdSha256Hash                 0      0.00%     67.93% # Class of executed instruction
system.cpu.op_class::SimdSha256Hash2                0      0.00%     67.93% # Class of executed instruction
system.cpu.op_class::SimdShaSigma2                  0      0.00%     67.93% # Class of executed instruction
system.cpu.op_class::SimdShaSigma3                  0      0.00%     67.93% # Class of executed instruction
system.cpu.op_class::SimdPredAlu                    0      0.00%     67.93% # Class of executed instruction
system.cpu.op_class::MemRead                     1628     14.92%     82.84% # Class of executed instruction
system.cpu.op_class::MemWrite                    1872     17.16%    100.00% # Class of executed instruction
system.cpu.op_class::FloatMemRead                   0      0.00%    100.00% # Class of executed instruction
system.cpu.op_class::FloatMemWrite                  0      0.00%    100.00% # Class of executed instruction
system.cpu.op_class::IprAccess                      0      0.00%    100.00% # Class of executed instruction
system.cpu.op_class::InstPrefetch                   0      0.00%    100.00% # Class of executed instruction
system.cpu.op_class::total                      10912                       # Class of executed instruction
system.cpu.pwrStateResidencyTicks::ON       153103750                       # Cumulative time (in ticks) in various power states
system.cpu.workload.numSyscalls                    11                       # Number of system calls
system.l2bus.pkt_count_system.cpu.icache.mem_side::system.l2cache.cpu_side         1043                       # Packet count per connected master and slave (bytes)
system.l2bus.pkt_count_system.cpu.dcache.mem_side::system.l2cache.cpu_side          705                       # Packet count per connected master and slave (bytes)
system.l2bus.pkt_count::total                    1748                       # Packet count per connected master and slave (bytes)
system.l2bus.pkt_size_system.cpu.icache.mem_side::system.l2cache.cpu_side        39488                       # Cumulative packet size per connected master and slave (bytes)
system.l2bus.pkt_size_system.cpu.dcache.mem_side::system.l2cache.cpu_side        23872                       # Cumulative packet size per connected master and slave (bytes)
system.l2bus.pkt_size::total                    63360                       # Cumulative packet size per connected master and slave (bytes)
system.l2bus.pwrStateResidencyTicks::UNDEFINED    153103750                       # Cumulative time (in ticks) in various power states
system.l2bus.reqLayer0.occupancy              2035000                       # Layer occupancy (ticks)
system.l2bus.reqLayer0.utilization                1.3                       # Layer utilization (%)
system.l2bus.respLayer0.occupancy             1597500                       # Layer occupancy (ticks)
system.l2bus.respLayer0.utilization               1.0                       # Layer utilization (%)
system.l2bus.respLayer1.occupancy             1027500                       # Layer occupancy (ticks)
system.l2bus.respLayer1.utilization               0.7                       # Layer utilization (%)
system.l2bus.snoopTraffic                           0                       # Total snoop traffic (bytes)
system.l2bus.snoop_fanout::samples                700                       # Request fanout histogram
system.l2bus.snoop_fanout::mean              0.012857                       # Request fanout histogram
system.l2bus.snoop_fanout::stdev             0.112739                       # Request fanout histogram
system.l2bus.snoop_fanout::underflows               0      0.00%      0.00% # Request fanout histogram
system.l2bus.snoop_fanout::0                      691     98.71%     98.71% # Request fanout histogram
system.l2bus.snoop_fanout::1                        9      1.29%    100.00% # Request fanout histogram
system.l2bus.snoop_fanout::2                        0      0.00%    100.00% # Request fanout histogram
system.l2bus.snoop_fanout::overflows                0      0.00%    100.00% # Request fanout histogram
system.l2bus.snoop_fanout::min_value                0                       # Request fanout histogram
system.l2bus.snoop_fanout::max_value                1                       # Request fanout histogram
system.l2bus.snoop_fanout::total                  700                       # Request fanout histogram
system.l2bus.snoop_filter.hit_multi_requests            5                       # Number of requests hitting in the snoop filter with multiple (>1) holders of the requested data.
system.l2bus.snoop_filter.hit_multi_snoops            0                       # Number of snoops hitting in the snoop filter with multiple (>1) holders of the requested data.
system.l2bus.snoop_filter.hit_single_requests          352                       # Number of requests hitting in the snoop filter with a single holder of the requested data.
system.l2bus.snoop_filter.hit_single_snoops            0                       # Number of snoops hitting in the snoop filter with a single holder of the requested data.
system.l2bus.snoop_filter.tot_requests           1048                       # Total number of requests made to the snoop filter.
system.l2bus.snoop_filter.tot_snoops                0                       # Total number of snoops made to the snoop filter.
system.l2bus.snoops                                 0                       # Total snoops (count)
system.l2bus.trans_dist::ReadResp                 558                       # Transaction distribution
system.l2bus.trans_dist::WritebackDirty            99                       # Transaction distribution
system.l2bus.trans_dist::WritebackClean           191                       # Transaction distribution
system.l2bus.trans_dist::CleanEvict                58                       # Transaction distribution
system.l2bus.trans_dist::ReadExReq                142                       # Transaction distribution
system.l2bus.trans_dist::ReadExResp               142                       # Transaction distribution
system.l2bus.trans_dist::ReadCleanReq             426                       # Transaction distribution
system.l2bus.trans_dist::ReadSharedReq            132                       # Transaction distribution
system.l2cache.ReadCleanReq_accesses::.cpu.inst          426                       # number of ReadCleanReq accesses(hits+misses)
system.l2cache.ReadCleanReq_accesses::total          426                       # number of ReadCleanReq accesses(hits+misses)
system.l2cache.ReadCleanReq_avg_miss_latency::.cpu.inst 184662.247475                       # average ReadCleanReq miss latency
system.l2cache.ReadCleanReq_avg_miss_latency::total 184662.247475                       # average ReadCleanReq miss latency
system.l2cache.ReadCleanReq_avg_mshr_miss_latency::.cpu.inst 84662.247475                       # average ReadCleanReq mshr miss latency
system.l2cache.ReadCleanReq_avg_mshr_miss_latency::total 84662.247475                       # average ReadCleanReq mshr miss latency
system.l2cache.ReadCleanReq_hits::.cpu.inst           30                       # number of ReadCleanReq hits
system.l2cache.ReadCleanReq_hits::total            30                       # number of ReadCleanReq hits
system.l2cache.ReadCleanReq_miss_latency::.cpu.inst     73126250                       # number of ReadCleanReq miss cycles
system.l2cache.ReadCleanReq_miss_latency::total     73126250                       # number of ReadCleanReq miss cycles
system.l2cache.ReadCleanReq_miss_rate::.cpu.inst     0.929577                       # miss rate for ReadCleanReq accesses
system.l2cache.ReadCleanReq_miss_rate::total     0.929577                       # miss rate for ReadCleanReq accesses
system.l2cache.ReadCleanReq_misses::.cpu.inst          396                       # number of ReadCleanReq misses
system.l2cache.ReadCleanReq_misses::total          396                       # number of ReadCleanReq misses
system.l2cache.ReadCleanReq_mshr_miss_latency::.cpu.inst     33526250                       # number of ReadCleanReq MSHR miss cycles
system.l2cache.ReadCleanReq_mshr_miss_latency::total     33526250                       # number of ReadCleanReq MSHR miss cycles
system.l2cache.ReadCleanReq_mshr_miss_rate::.cpu.inst     0.929577                       # mshr miss rate for ReadCleanReq accesses
system.l2cache.ReadCleanReq_mshr_miss_rate::total     0.929577                       # mshr miss rate for ReadCleanReq accesses
system.l2cache.ReadCleanReq_mshr_misses::.cpu.inst          396                       # number of ReadCleanReq MSHR misses
system.l2cache.ReadCleanReq_mshr_misses::total          396                       # number of ReadCleanReq MSHR misses
system.l2cache.ReadExReq_accesses::.cpu.data          142                       # number of ReadExReq accesses(hits+misses)
system.l2cache.ReadExReq_accesses::total          142                       # number of ReadExReq accesses(hits+misses)
system.l2cache.ReadExReq_avg_miss_latency::.cpu.data 192663.461538                       # average ReadExReq miss latency
system.l2cache.ReadExReq_avg_miss_latency::total 192663.461538                       # average ReadExReq miss latency
system.l2cache.ReadExReq_avg_mshr_miss_latency::.cpu.data 92663.461538                       # average ReadExReq mshr miss latency
system.l2cache.ReadExReq_avg_mshr_miss_latency::total 92663.461538                       # average ReadExReq mshr miss latency
system.l2cache.ReadExReq_hits::.cpu.data           12                       # number of ReadExReq hits
system.l2cache.ReadExReq_hits::total               12                       # number of ReadExReq hits
system.l2cache.ReadExReq_miss_latency::.cpu.data     25046250                       # number of ReadExReq miss cycles
system.l2cache.ReadExReq_miss_latency::total     25046250                       # number of ReadExReq miss cycles
system.l2cache.ReadExReq_miss_rate::.cpu.data     0.915493                       # miss rate for ReadExReq accesses
system.l2cache.ReadExReq_miss_rate::total     0.915493                       # miss rate for ReadExReq accesses
system.l2cache.ReadExReq_misses::.cpu.data          130                       # number of ReadExReq misses
system.l2cache.ReadExReq_misses::total            130                       # number of ReadExReq misses
system.l2cache.ReadExReq_mshr_miss_latency::.cpu.data     12046250                       # number of ReadExReq MSHR miss cycles
system.l2cache.ReadExReq_mshr_miss_latency::total     12046250                       # number of ReadExReq MSHR miss cycles
system.l2cache.ReadExReq_mshr_miss_rate::.cpu.data     0.915493                       # mshr miss rate for ReadExReq accesses
system.l2cache.ReadExReq_mshr_miss_rate::total     0.915493                       # mshr miss rate for ReadExReq accesses
system.l2cache.ReadExReq_mshr_misses::.cpu.data          130                       # number of ReadExReq MSHR misses
system.l2cache.ReadExReq_mshr_misses::total          130                       # number of ReadExReq MSHR misses
system.l2cache.ReadSharedReq_accesses::.cpu.data          132                       # number of ReadSharedReq accesses(hits+misses)
system.l2cache.ReadSharedReq_accesses::total          132                       # number of ReadSharedReq accesses(hits+misses)
system.l2cache.ReadSharedReq_avg_miss_latency::.cpu.data 186492.346939                       # average ReadSharedReq miss latency
system.l2cache.ReadSharedReq_avg_miss_latency::total 186492.346939                       # average ReadSharedReq miss latency
system.l2cache.ReadSharedReq_avg_mshr_miss_latency::.cpu.data 86492.346939                       # average ReadSharedReq mshr miss latency
system.l2cache.ReadSharedReq_avg_mshr_miss_latency::total 86492.346939                       # average ReadSharedReq mshr miss latency
system.l2cache.ReadSharedReq_hits::.cpu.data           34                       # number of ReadSharedReq hits
system.l2cache.ReadSharedReq_hits::total           34                       # number of ReadSharedReq hits
system.l2cache.ReadSharedReq_miss_latency::.cpu.data     18276250                       # number of ReadSharedReq miss cycles
system.l2cache.ReadSharedReq_miss_latency::total     18276250                       # number of ReadSharedReq miss cycles
system.l2cache.ReadSharedReq_miss_rate::.cpu.data     0.742424                       # miss rate for ReadSharedReq accesses
system.l2cache.ReadSharedReq_miss_rate::total     0.742424                       # miss rate for ReadSharedReq accesses
system.l2cache.ReadSharedReq_misses::.cpu.data           98                       # number of ReadSharedReq misses
system.l2cache.ReadSharedReq_misses::total           98                       # number of ReadSharedReq misses
system.l2cache.ReadSharedReq_mshr_miss_latency::.cpu.data      8476250                       # number of ReadSharedReq MSHR miss cycles
system.l2cache.ReadSharedReq_mshr_miss_latency::total      8476250                       # number of ReadSharedReq MSHR miss cycles
system.l2cache.ReadSharedReq_mshr_miss_rate::.cpu.data     0.742424                       # mshr miss rate for ReadSharedReq accesses
system.l2cache.ReadSharedReq_mshr_miss_rate::total     0.742424                       # mshr miss rate for ReadSharedReq accesses
system.l2cache.ReadSharedReq_mshr_misses::.cpu.data           98                       # number of ReadSharedReq MSHR misses
system.l2cache.ReadSharedReq_mshr_misses::total           98                       # number of ReadSharedReq MSHR misses
system.l2cache.WritebackClean_accesses::.writebacks          190                       # number of WritebackClean accesses(hits+misses)
system.l2cache.WritebackClean_accesses::total          190                       # number of WritebackClean accesses(hits+misses)
system.l2cache.WritebackClean_hits::.writebacks          190                       # number of WritebackClean hits
system.l2cache.WritebackClean_hits::total          190                       # number of WritebackClean hits
system.l2cache.WritebackDirty_accesses::.writebacks           99                       # number of WritebackDirty accesses(hits+misses)
system.l2cache.WritebackDirty_accesses::total           99                       # number of WritebackDirty accesses(hits+misses)
system.l2cache.WritebackDirty_hits::.writebacks           99                       # number of WritebackDirty hits
system.l2cache.WritebackDirty_hits::total           99                       # number of WritebackDirty hits
system.l2cache.avg_blocked_cycles::no_mshrs          nan                       # average number of cycles each access was blocked
system.l2cache.avg_blocked_cycles::no_targets          nan                       # average number of cycles each access was blocked
system.l2cache.blocked::no_mshrs                    0                       # number of cycles access was blocked
system.l2cache.blocked::no_targets                  0                       # number of cycles access was blocked
system.l2cache.blocked_cycles::no_mshrs             0                       # number of cycles access was blocked
system.l2cache.blocked_cycles::no_targets            0                       # number of cycles access was blocked
system.l2cache.demand_accesses::.cpu.inst          426                       # number of demand (read+write) accesses
system.l2cache.demand_accesses::.cpu.data          274                       # number of demand (read+write) accesses
system.l2cache.demand_accesses::total             700                       # number of demand (read+write) accesses
system.l2cache.demand_avg_miss_latency::.cpu.inst 184662.247475                       # average overall miss latency
system.l2cache.demand_avg_miss_latency::.cpu.data 190010.964912                       # average overall miss latency
system.l2cache.demand_avg_miss_latency::total 186616.586538                       # average overall miss latency
system.l2cache.demand_avg_mshr_miss_latency::.cpu.inst 84662.247475                       # average overall mshr miss latency
system.l2cache.demand_avg_mshr_miss_latency::.cpu.data 90010.964912                       # average overall mshr miss latency
system.l2cache.demand_avg_mshr_miss_latency::total 86616.586538                       # average overall mshr miss latency
system.l2cache.demand_hits::.cpu.inst              30                       # number of demand (read+write) hits
system.l2cache.demand_hits::.cpu.data              46                       # number of demand (read+write) hits
system.l2cache.demand_hits::total                  76                       # number of demand (read+write) hits
system.l2cache.demand_miss_latency::.cpu.inst     73126250                       # number of demand (read+write) miss cycles
system.l2cache.demand_miss_latency::.cpu.data     43322500                       # number of demand (read+write) miss cycles
system.l2cache.demand_miss_latency::total    116448750                       # number of demand (read+write) miss cycles
system.l2cache.demand_miss_rate::.cpu.inst     0.929577                       # miss rate for demand accesses
system.l2cache.demand_miss_rate::.cpu.data     0.832117                       # miss rate for demand accesses
system.l2cache.demand_miss_rate::total       0.891429                       # miss rate for demand accesses
system.l2cache.demand_misses::.cpu.inst           396                       # number of demand (read+write) misses
system.l2cache.demand_misses::.cpu.data           228                       # number of demand (read+write) misses
system.l2cache.demand_misses::total               624                       # number of demand (read+write) misses
system.l2cache.demand_mshr_miss_latency::.cpu.inst     33526250                       # number of demand (read+write) MSHR miss cycles
system.l2cache.demand_mshr_miss_latency::.cpu.data     20522500                       # number of demand (read+write) MSHR miss cycles
system.l2cache.demand_mshr_miss_latency::total     54048750                       # number of demand (read+write) MSHR miss cycles
system.l2cache.demand_mshr_miss_rate::.cpu.inst     0.929577                       # mshr miss rate for demand accesses
system.l2cache.demand_mshr_miss_rate::.cpu.data     0.832117                       # mshr miss rate for demand accesses
system.l2cache.demand_mshr_miss_rate::total     0.891429                       # mshr miss rate for demand accesses
system.l2cache.demand_mshr_misses::.cpu.inst          396                       # number of demand (read+write) MSHR misses
system.l2cache.demand_mshr_misses::.cpu.data          228                       # number of demand (read+write) MSHR misses
system.l2cache.demand_mshr_misses::total          624                       # number of demand (read+write) MSHR misses
system.l2cache.overall_accesses::.cpu.inst          426                       # number of overall (read+write) accesses
system.l2cache.overall_accesses::.cpu.data          274                       # number of overall (read+write) accesses
system.l2cache.overall_accesses::total            700                       # number of overall (read+write) accesses
system.l2cache.overall_avg_miss_latency::.cpu.inst 184662.247475                       # average overall miss latency
system.l2cache.overall_avg_miss_latency::.cpu.data 190010.964912                       # average overall miss latency
system.l2cache.overall_avg_miss_latency::total 186616.586538                       # average overall miss latency
system.l2cache.overall_avg_mshr_miss_latency::.cpu.inst 84662.247475                       # average overall mshr miss latency
system.l2cache.overall_avg_mshr_miss_latency::.cpu.data 90010.964912                       # average overall mshr miss latency
system.l2cache.overall_avg_mshr_miss_latency::total 86616.586538                       # average overall mshr miss latency
system.l2cache.overall_hits::.cpu.inst             30                       # number of overall hits
system.l2cache.overall_hits::.cpu.data             46                       # number of overall hits
system.l2cache.overall_hits::total                 76                       # number of overall hits
system.l2cache.overall_miss_latency::.cpu.inst     73126250                       # number of overall miss cycles
system.l2cache.overall_miss_latency::.cpu.data     43322500                       # number of overall miss cycles
system.l2cache.overall_miss_latency::total    116448750                       # number of overall miss cycles
system.l2cache.overall_miss_rate::.cpu.inst     0.929577                       # miss rate for overall accesses
system.l2cache.overall_miss_rate::.cpu.data     0.832117                       # miss rate for overall accesses
system.l2cache.overall_miss_rate::total      0.891429                       # miss rate for overall accesses
system.l2cache.overall_misses::.cpu.inst          396                       # number of overall misses
system.l2cache.overall_misses::.cpu.data          228                       # number of overall misses
system.l2cache.overall_misses::total              624                       # number of overall misses
system.l2cache.overall_mshr_miss_latency::.cpu.inst     33526250                       # number of overall MSHR miss cycles
system.l2cache.overall_mshr_miss_latency::.cpu.data     20522500                       # number of overall MSHR miss cycles
system.l2cache.overall_mshr_miss_latency::total     54048750                       # number of overall MSHR miss cycles
system.l2cache.overall_mshr_miss_rate::.cpu.inst     0.929577                       # mshr miss rate for overall accesses
system.l2cache.overall_mshr_miss_rate::.cpu.data     0.832117                       # mshr miss rate for overall accesses
system.l2cache.overall_mshr_miss_rate::total     0.891429                       # mshr miss rate for overall accesses
system.l2cache.overall_mshr_misses::.cpu.inst          396                       # number of overall MSHR misses
system.l2cache.overall_mshr_misses::.cpu.data          228                       # number of overall MSHR misses
system.l2cache.overall_mshr_misses::total          624                       # number of overall MSHR misses
system.l2cache.pwrStateResidencyTicks::UNDEFINED    153103750                       # Cumulative time (in ticks) in various power states
system.l2cache.replacements                         0                       # number of replacements
system.l2cache.tags.age_task_id_blocks_1024::0           46                       # Occupied blocks per task id
system.l2cache.tags.age_task_id_blocks_1024::1          339                       # Occupied blocks per task id
system.l2cache.tags.age_task_id_blocks_1024::2          239                       # Occupied blocks per task id
system.l2cache.tags.avg_refs                 1.671474                       # Average number of references to valid blocks.
system.l2cache.tags.data_accesses                8968                       # Number of data accesses
system.l2cache.tags.occ_blocks::.cpu.inst   179.453346                       # Average occupied blocks per requestor
system.l2cache.tags.occ_blocks::.cpu.data   141.349763                       # Average occupied blocks per requestor
system.l2cache.tags.occ_percent::.cpu.inst     0.043812                       # Average percentage of cache occupancy
system.l2cache.tags.occ_percent::.cpu.data     0.034509                       # Average percentage of cache occupancy
system.l2cache.tags.occ_percent::total       0.078321                       # Average percentage of cache occupancy
system.l2cache.tags.occ_task_id_blocks::1024          624                       # Occupied blocks per task id
system.l2cache.tags.occ_task_id_percent::1024     0.152344                       # Percentage of cache occupancy per task id
system.l2cache.tags.pwrStateResidencyTicks::UNDEFINED    153103750                       # Cumulative time (in ticks) in various power states
system.l2cache.tags.sampled_refs                  624                       # Sample count of references to valid blocks.
system.l2cache.tags.tag_accesses                 8968                       # Number of tag accesses
system.l2cache.tags.tagsinuse              320.803109                       # Cycle average of tags in use
system.l2cache.tags.total_refs                   1043                       # Total number of references to valid blocks.
system.l2cache.tags.warmup_cycle                93750                       # Cycle when the warmup percentage was hit.
system.mem_ctrl.avgBusLat                     5000.00                       # Average bus latency per DRAM burst
system.mem_ctrl.avgGap                      244993.99                       # Average gap between requests
system.mem_ctrl.avgMemAccLat                 27864.58                       # Average memory access latency per DRAM burst
system.mem_ctrl.avgPriority_.cpu.inst::samples       396.00                       # Average QoS priority value for accepted requests
system.mem_ctrl.avgPriority_.cpu.data::samples       228.00                       # Average QoS priority value for accepted requests
system.mem_ctrl.avgQLat                       9114.58                       # Average queueing delay per DRAM burst
system.mem_ctrl.avgRdBW                        260.84                       # Average DRAM read bandwidth in MiByte/s
system.mem_ctrl.avgRdBWSys                     260.84                       # Average system read bandwidth in MiByte/s
system.mem_ctrl.avgRdQLen                        1.00                       # Average read queue length when enqueuing
system.mem_ctrl.avgWrBW                          0.00                       # Average achieved write bandwidth in MiByte/s
system.mem_ctrl.avgWrBWSys                       0.00                       # Average system write bandwidth in MiByte/s
system.mem_ctrl.avgWrQLen                        0.00                       # Average write queue length when enqueuing
system.mem_ctrl.busUtil                          2.04                       # Data bus utilization in percentage
system.mem_ctrl.busUtilRead                      2.04                       # Data bus utilization in percentage for reads
system.mem_ctrl.busUtilWrite                     0.00                       # Data bus utilization in percentage for writes
system.mem_ctrl.bw_inst_read::.cpu.inst     165534809                       # Instruction read bandwidth from this memory (bytes/s)
system.mem_ctrl.bw_inst_read::total         165534809                       # Instruction read bandwidth from this memory (bytes/s)
system.mem_ctrl.bw_read::.cpu.inst          165534809                       # Total read bandwidth from this memory (bytes/s)
system.mem_ctrl.bw_read::.cpu.data           95307920                       # Total read bandwidth from this memory (bytes/s)
system.mem_ctrl.bw_read::total              260842729                       # Total read bandwidth from this memory (bytes/s)
system.mem_ctrl.bw_total::.cpu.inst         165534809                       # Total bandwidth to/from this memory (bytes/s)
system.mem_ctrl.bw_total::.cpu.data          95307920                       # Total bandwidth to/from this memory (bytes/s)
system.mem_ctrl.bw_total::total             260842729                       # Total bandwidth to/from this memory (bytes/s)
system.mem_ctrl.bytesPerActivate::samples          169                       # Bytes accessed per row activation
system.mem_ctrl.bytesPerActivate::mean     227.976331                       # Bytes accessed per row activation
system.mem_ctrl.bytesPerActivate::gmean    159.810931                       # Bytes accessed per row activation
system.mem_ctrl.bytesPerActivate::stdev    220.245965                       # Bytes accessed per row activation
system.mem_ctrl.bytesPerActivate::0-127            53     31.36%     31.36% # Bytes accessed per row activation
system.mem_ctrl.bytesPerActivate::128-255           63     37.28%     68.64% # Bytes accessed per row activation
system.mem_ctrl.bytesPerActivate::256-383           17     10.06%     78.70% # Bytes accessed per row activation
system.mem_ctrl.bytesPerActivate::384-511           17     10.06%     88.76% # Bytes accessed per row activation
system.mem_ctrl.bytesPerActivate::512-639            5      2.96%     91.72% # Bytes accessed per row activation
system.mem_ctrl.bytesPerActivate::640-767            4      2.37%     94.08% # Bytes accessed per row activation
system.mem_ctrl.bytesPerActivate::768-895            6      3.55%     97.63% # Bytes accessed per row activation
system.mem_ctrl.bytesPerActivate::1024-1151            4      2.37%    100.00% # Bytes accessed per row activation
system.mem_ctrl.bytesPerActivate::total           169                       # Bytes accessed per row activation
system.mem_ctrl.bytesReadDRAM                   39936                       # Total number of bytes read from DRAM
system.mem_ctrl.bytesReadSys                    39936                       # Total read bytes from the system interface side
system.mem_ctrl.bytesReadWrQ                        0                       # Total number of bytes read from write queue
system.mem_ctrl.bytesWritten                        0                       # Total number of bytes written to DRAM
system.mem_ctrl.bytesWrittenSys                     0                       # Total written bytes from the system interface side
system.mem_ctrl.bytes_inst_read::.cpu.inst        25344                       # Number of instructions bytes read from this memory
system.mem_ctrl.bytes_inst_read::total          25344                       # Number of instructions bytes read from this memory
system.mem_ctrl.bytes_read::.cpu.inst           25344                       # Number of bytes read from this memory
system.mem_ctrl.bytes_read::.cpu.data           14592                       # Number of bytes read from this memory
system.mem_ctrl.bytes_read::total               39936                       # Number of bytes read from this memory
system.mem_ctrl.masterReadAccesses::.cpu.inst          396                       # Per-master read serviced memory accesses
system.mem_ctrl.masterReadAccesses::.cpu.data          228                       # Per-master read serviced memory accesses
[...]
system.mem_ctrl.rdQLenPdf::27                       0                       # What read queue length does an incoming req see
system.mem_ctrl.rdQLenPdf::28                       0                       # What read queue length does an incoming req see
system.mem_ctrl.rdQLenPdf::29                       0                       # What read queue length does an incoming req see
system.mem_ctrl.rdQLenPdf::30                       0                       # What read queue length does an incoming req see
system.mem_ctrl.rdQLenPdf::31                       0                       # What read queue length does an incoming req see
system.mem_ctrl.readBursts                        624                       # Number of DRAM read bursts, including those serviced by the write queue
system.mem_ctrl.readPktSize::0                      0                       # Read request sizes (log2)
system.mem_ctrl.readPktSize::1                      0                       # Read request sizes (log2)
system.mem_ctrl.readPktSize::2                      0                       # Read request sizes (log2)
system.mem_ctrl.readPktSize::3                      0                       # Read request sizes (log2)
system.mem_ctrl.readPktSize::4                      0                       # Read request sizes (log2)
system.mem_ctrl.readPktSize::5                      0                       # Read request sizes (log2)
system.mem_ctrl.readPktSize::6                    624                       # Read request sizes (log2)
system.mem_ctrl.readReqs                          624                       # Number of read requests accepted
system.mem_ctrl.readRowHitRate                  71.96                       # Row buffer hit rate for reads
system.mem_ctrl.readRowHits                       449                       # Number of row buffer hits during reads
system.mem_ctrl.servicedByWrQ                       0                       # Number of DRAM read bursts serviced by the write queue
system.mem_ctrl.totBusLat                     3120000                       # Total ticks spent in databus transfers
system.mem_ctrl.totGap                      152876250                       # Total gap between requests
system.mem_ctrl.totMemAccLat                 17387500                       # Total ticks spent from burst creation until serviced by the DRAM
system.mem_ctrl.totQLat                       5687500                       # Total ticks spent queuing
system.mem_ctrl.wrQLenPdf::0                        0                       # What write queue length does an incoming req see
system.mem_ctrl.wrQLenPdf::1                        0                       # What write queue length does an incoming req see
system.mem_ctrl.wrQLenPdf::2                        0                       # What write queue length does an incoming req see
system.mem_ctrl.wrQLenPdf::3                        0                       # What write queue length does an incoming req see
system.mem_ctrl.wrQLenPdf::4                        0                       # What write queue length does an incoming req see
system.mem_ctrl.wrQLenPdf::5                        0                       # What write queue length does an incoming req see
system.mem_ctrl.wrQLenPdf::6                        0                       # What write queue length does an incoming req see
system.mem_ctrl.wrQLenPdf::7                        0                       # What write queue length does an incoming req see
system.mem_ctrl.wrQLenPdf::8                        0                       # What write queue length does an incoming req see
system.mem_ctrl.wrQLenPdf::9                        0                       # What write queue length does an incoming req see
system.mem_ctrl.wrQLenPdf::10                       0                       # What write queue length does an incoming req see
system.mem_ctrl.wrQLenPdf::11                       0                       # What write queue length does an incoming req see
system.mem_ctrl.wrQLenPdf::12                       0                       # What write queue length does an incoming req see
system.mem_ctrl.wrQLenPdf::13                       0                       # What write queue length does an incoming req see
system.mem_ctrl.wrQLenPdf::14                       0                       # What write queue length does an incoming req see
system.mem_ctrl.wrQLenPdf::15                       0                       # What write queue length does an incoming req see
system.mem_ctrl.wrQLenPdf::16                       0                       # What write queue length does an incoming req see
system.mem_ctrl.wrQLenPdf::17                       0                       # What write queue length does an incoming req see
system.mem_ctrl.wrQLenPdf::18                       0                       # What write queue length does an incoming req see
system.mem_ctrl.wrQLenPdf::19                       0                       # What write queue length does an incoming req see
system.mem_ctrl.wrQLenPdf::20                       0                       # What write queue length does an incoming req see
system.mem_ctrl.wrQLenPdf::21                       0                       # What write queue length does an incoming req see
system.mem_ctrl.wrQLenPdf::22                       0                       # What write queue length does an incoming req see
system.mem_ctrl.wrQLenPdf::23                       0                       # What write queue length does an incoming req see
system.mem_ctrl.wrQLenPdf::24                       0                       # What write queue length does an incoming req see
system.mem_ctrl.wrQLenPdf::25                       0                       # What write queue length does an incoming req see
system.mem_ctrl.wrQLenPdf::26                       0                       # What write queue length does an incoming req see
system.mem_ctrl.wrQLenPdf::27                       0                       # What write queue length does an incoming req see
system.mem_ctrl.wrQLenPdf::28                       0                       # What write queue length does an incoming req see
system.mem_ctrl.wrQLenPdf::29                       0                       # What write queue length does an incoming req see
system.mem_ctrl.wrQLenPdf::30                       0                       # What write queue length does an incoming req see
system.mem_ctrl.wrQLenPdf::31                       0                       # What write queue length does an incoming req see
system.mem_ctrl.wrQLenPdf::32                       0                       # What write queue length does an incoming req see
system.mem_ctrl.wrQLenPdf::33                       0                       # What write queue length does an incoming req see
system.mem_ctrl.wrQLenPdf::34                       0                       # What write queue length does an incoming req see
system.mem_ctrl.wrQLenPdf::35                       0                       # What write queue length does an incoming req see
system.mem_ctrl.wrQLenPdf::36                       0                       # What write queue length does an incoming req see
system.mem_ctrl.wrQLenPdf::37                       0                       # What write queue length does an incoming req see
system.mem_ctrl.wrQLenPdf::38                       0                       # What write queue length does an incoming req see
system.mem_ctrl.wrQLenPdf::39                       0                       # What write queue length does an incoming req see
system.mem_ctrl.wrQLenPdf::40                       0                       # What write queue length does an incoming req see
system.mem_ctrl.wrQLenPdf::41                       0                       # What write queue length does an incoming req see
system.mem_ctrl.wrQLenPdf::42                       0                       # What write queue length does an incoming req see
system.mem_ctrl.wrQLenPdf::43                       0                       # What write queue length does an incoming req see
system.mem_ctrl.wrQLenPdf::44                       0                       # What write queue length does an incoming req see
system.mem_ctrl.wrQLenPdf::45                       0                       # What write queue length does an incoming req see
system.mem_ctrl.wrQLenPdf::46                       0                       # What write queue length does an incoming req see
system.mem_ctrl.wrQLenPdf::47                       0                       # What write queue length does an incoming req see
system.mem_ctrl.wrQLenPdf::48                       0                       # What write queue length does an incoming req see
system.mem_ctrl.wrQLenPdf::49                       0                       # What write queue length does an incoming req see
system.mem_ctrl.wrQLenPdf::50                       0                       # What write queue length does an incoming req see
system.mem_ctrl.wrQLenPdf::51                       0                       # What write queue length does an incoming req see
system.mem_ctrl.wrQLenPdf::52                       0                       # What write queue length does an incoming req see
system.mem_ctrl.wrQLenPdf::53                       0                       # What write queue length does an incoming req see
system.mem_ctrl.wrQLenPdf::54                       0                       # What write queue length does an incoming req see
system.mem_ctrl.wrQLenPdf::55                       0                       # What write queue length does an incoming req see
system.mem_ctrl.wrQLenPdf::56                       0                       # What write queue length does an incoming req see
system.mem_ctrl.wrQLenPdf::57                       0                       # What write queue length does an incoming req see
system.mem_ctrl.wrQLenPdf::58                       0                       # What write queue length does an incoming req see
system.mem_ctrl.wrQLenPdf::59                       0                       # What write queue length does an incoming req see
system.mem_ctrl.wrQLenPdf::60                       0                       # What write queue length does an incoming req see
system.mem_ctrl.wrQLenPdf::61                       0                       # What write queue length does an incoming req see
system.mem_ctrl.wrQLenPdf::62                       0                       # What write queue length does an incoming req see
system.mem_ctrl.wrQLenPdf::63                       0                       # What write queue length does an incoming req see
system.mem_ctrl.writeBursts                         0                       # Number of DRAM write bursts, including those merged in the write queue
system.mem_ctrl.writePktSize::0                     0                       # Write request sizes (log2)
system.mem_ctrl.writePktSize::1                     0                       # Write request sizes (log2)
system.mem_ctrl.writePktSize::2                     0                       # Write request sizes (log2)
system.mem_ctrl.writePktSize::3                     0                       # Write request sizes (log2)
system.mem_ctrl.writePktSize::4                     0                       # Write request sizes (log2)
system.mem_ctrl.writePktSize::5                     0                       # Write request sizes (log2)
system.mem_ctrl.writePktSize::6                     0                       # Write request sizes (log2)
system.mem_ctrl.writeReqs                           0                       # Number of write requests accepted
system.mem_ctrl.writeRowHitRate                   nan                       # Row buffer hit rate for writes
system.mem_ctrl.writeRowHits                        0                       # Number of row buffer hits during writes
system.mem_ctrl_0.actBackEnergy              64015560                       # Energy for active background per rank (pJ)
system.mem_ctrl_0.actEnergy                    771120                       # Energy for activate commands per rank (pJ)
system.mem_ctrl_0.actPowerDownEnergy                0                       # Energy for active power-down per rank (pJ)
system.mem_ctrl_0.averagePower             552.609979                       # Core power per rank (mW)
system.mem_ctrl_0.memoryStateTime::IDLE      12182500                       # Time in different power states
system.mem_ctrl_0.memoryStateTime::REF        4940000                       # Time in different power states
system.mem_ctrl_0.memoryStateTime::SREF             0                       # Time in different power states
system.mem_ctrl_0.memoryStateTime::PRE_PDN            0                       # Time in different power states
system.mem_ctrl_0.memoryStateTime::ACT      135981250                       # Time in different power states
system.mem_ctrl_0.memoryStateTime::ACT_PDN            0                       # Time in different power states
system.mem_ctrl_0.preBackEnergy               4884000                       # Energy for precharge background per rank (pJ)
system.mem_ctrl_0.preEnergy                    394680                       # Energy for precharge commands per rank (pJ)
system.mem_ctrl_0.prePowerDownEnergy                0                       # Energy for precharge power-down per rank (pJ)
system.mem_ctrl_0.readEnergy                  2863140                       # Energy for read commands per rank (pJ)
system.mem_ctrl_0.refreshEnergy          11678160.000000                       # Energy for refresh commands per rank (pJ)
system.mem_ctrl_0.selfRefreshEnergy                 0                       # Energy for self refresh per rank (pJ)
system.mem_ctrl_0.totalEnergy                84606660                       # Total energy per rank (pJ)
system.mem_ctrl_0.totalIdleTime                     0                       # Total Idle time Per DRAM Rank
system.mem_ctrl_0.writeEnergy                       0                       # Energy for write commands per rank (pJ)
system.mem_ctrl_1.actBackEnergy              52332270                       # Energy for active background per rank (pJ)
system.mem_ctrl_1.actEnergy                    478380                       # Energy for activate commands per rank (pJ)
system.mem_ctrl_1.actPowerDownEnergy                0                       # Energy for active power-down per rank (pJ)
system.mem_ctrl_1.averagePower             529.381318                       # Core power per rank (mW)
system.mem_ctrl_1.memoryStateTime::IDLE      37803750                       # Time in different power states
system.mem_ctrl_1.memoryStateTime::REF        4940000                       # Time in different power states
system.mem_ctrl_1.memoryStateTime::SREF             0                       # Time in different power states
system.mem_ctrl_1.memoryStateTime::PRE_PDN            0                       # Time in different power states
system.mem_ctrl_1.memoryStateTime::ACT      110360000                       # Time in different power states
system.mem_ctrl_1.memoryStateTime::ACT_PDN            0                       # Time in different power states
system.mem_ctrl_1.preBackEnergy              14722560                       # Energy for precharge background per rank (pJ)
system.mem_ctrl_1.preEnergy                    246675                       # Energy for precharge commands per rank (pJ)
system.mem_ctrl_1.prePowerDownEnergy                0                       # Energy for precharge power-down per rank (pJ)
system.mem_ctrl_1.readEnergy                  1592220                       # Energy for read commands per rank (pJ)
system.mem_ctrl_1.refreshEnergy          11678160.000000                       # Energy for refresh commands per rank (pJ)
system.mem_ctrl_1.selfRefreshEnergy                 0                       # Energy for self refresh per rank (pJ)
system.mem_ctrl_1.totalEnergy                81050265                       # Total energy per rank (pJ)
system.mem_ctrl_1.totalIdleTime                     0                       # Total Idle time Per DRAM Rank
system.mem_ctrl_1.writeEnergy                       0                       # Energy for write commands per rank (pJ)
system.membus.pkt_count_system.l2cache.mem_side::system.mem_ctrl.port         1248                       # Packet count per connected master and slave (bytes)
system.membus.pkt_count::total                   1248                       # Packet count per connected master and slave (bytes)
system.membus.pkt_size_system.l2cache.mem_side::system.mem_ctrl.port        39936                       # Cumulative packet size per connected master and slave (bytes)
system.membus.pkt_size::total                   39936                       # Cumulative packet size per connected master and slave (bytes)
system.membus.pwrStateResidencyTicks::UNDEFINED    153103750                       # Cumulative time (in ticks) in various power states
system.membus.reqLayer0.occupancy              780000                       # Layer occupancy (ticks)
system.membus.reqLayer0.utilization               0.5                       # Layer utilization (%)
system.membus.respLayer0.occupancy            3900000                       # Layer occupancy (ticks)
system.membus.respLayer0.utilization              2.5                       # Layer utilization (%)
system.membus.snoopTraffic                          0                       # Total snoop traffic (bytes)
system.membus.snoop_fanout::samples               624                       # Request fanout histogram
system.membus.snoop_fanout::mean                    0                       # Request fanout histogram
system.membus.snoop_fanout::stdev                   0                       # Request fanout histogram
system.membus.snoop_fanout::underflows              0      0.00%      0.00% # Request fanout histogram
system.membus.snoop_fanout::0                     624    100.00%    100.00% # Request fanout histogram
system.membus.snoop_fanout::1                       0      0.00%    100.00% # Request fanout histogram
system.membus.snoop_fanout::overflows               0      0.00%    100.00% # Request fanout histogram
system.membus.snoop_fanout::min_value               0                       # Request fanout histogram
system.membus.snoop_fanout::max_value               0                       # Request fanout histogram
system.membus.snoop_fanout::total                 624                       # Request fanout histogram
system.membus.snoop_filter.hit_multi_requests            0                       # Number of requests hitting in the snoop filter with multiple (>1) holders of the requested data.
system.membus.snoop_filter.hit_multi_snoops            0                       # Number of snoops hitting in the snoop filter with multiple (>1) holders of the requested data.
system.membus.snoop_filter.hit_single_requests            0                       # Number of requests hitting in the snoop filter with a single holder of the requested data.
system.membus.snoop_filter.hit_single_snoops            0                       # Number of snoops hitting in the snoop filter with a single holder of the requested data.
system.membus.snoop_filter.tot_requests           624                       # Total number of requests made to the snoop filter.
system.membus.snoop_filter.tot_snoops               0                       # Total number of snoops made to the snoop filter.
system.membus.snoops                                0                       # Total snoops (count)
system.membus.trans_dist::ReadResp                494                       # Transaction distribution
system.membus.trans_dist::ReadExReq               130                       # Transaction distribution
system.membus.trans_dist::ReadExResp              130                       # Transaction distribution
system.membus.trans_dist::ReadSharedReq           494                       # Transaction distribution

---------- End Simulation Statistics   ----------
