
---------- Begin Simulation Statistics ----------
final_tick                                 3846166000                       # Number of ticks from beginning of simulation (restored from checkpoints and never reset)
host_inst_rate                                 122758                       # Simulator instruction rate (inst/s)
host_mem_usage                                 839856                       # Number of bytes of host memory used
host_op_rate                                   122770                       # Simulator op (including micro ops) rate (op/s)
host_seconds                                   164.49                       # Real time elapsed on the host
host_tick_rate                               23381913                       # Simulator tick rate (ticks/s)
sim_freq                                 1000000000000                       # Frequency of simulated ticks
sim_insts                                    20192793                       # Number of instructions simulated
sim_ops                                      20194858                       # Number of ops (including micro ops) simulated
sim_seconds                                  0.003846                       # Number of seconds simulated
sim_ticks                                  3846166000                       # Number of ticks simulated
system.clk_domain.clock                          1000                       # Clock period in ticks
system.cpu.branchPred.BTBCorrect                    0                       # Number of correct BTB predictions (this stat may not work properly.
system.cpu.branchPred.BTBHitPct             87.724080                       # BTB Hit Percentage
system.cpu.branchPred.BTBHits                 1445413                       # Number of BTB hits
system.cpu.branchPred.BTBLookups              1647681                       # Number of BTB lookups
system.cpu.branchPred.RASInCorrect                 83                       # Number of incorrect RAS predictions.
system.cpu.branchPred.condIncorrect               896                       # Number of conditional branches incorrect
system.cpu.branchPred.condPredicted           2260264                       # Number of conditional branches predicted
system.cpu.branchPred.indirectHits                 40                       # Number of indirect target hits.
system.cpu.branchPred.indirectLookups             229                       # Number of indirect predictor lookups.
system.cpu.branchPred.indirectMisses              189                       # Number of indirect misses.
system.cpu.branchPred.lookups                 3362134                       # Number of BP lookups
system.cpu.branchPred.usedRAS                  500719                       # Number of times the RAS was used to get a target.
system.cpu.branchPredindirectMispredicted          105                       # Number of mispredicted indirect branches.
system.cpu.cc_regfile_reads                  69012894                       # number of cc regfile reads
system.cpu.cc_regfile_writes                 11989645                       # number of cc regfile writes
system.cpu.commit.amos                              0                       # Number of atomic instructions committed
system.cpu.commit.branchMispredicts               650                       # The number of times a branch was mispredicted
system.cpu.commit.branches                    3358697                       # Number of branches committed
system.cpu.commit.bw_lim_events                509753                       # number cycles where commit BW limit reached
system.cpu.commit.commitNonSpecStalls              46                       # The number of times commit has been forced to stall to communicate backwards
system.cpu.commit.commitSquashedInsts           11331                       # The number of squashed insts skipped by commit
system.cpu.commit.committedInsts             20192793                       # Number of instructions committed
system.cpu.commit.committedOps               20194858                       # Number of ops (including micro ops) committed
system.cpu.commit.committed_per_cycle::samples      7648502                       # Number of insts commited each cycle
system.cpu.commit.committed_per_cycle::mean     2.640368                       # Number of insts commited each cycle
system.cpu.commit.committed_per_cycle::stdev     2.135498                       # Number of insts commited each cycle
system.cpu.commit.committed_per_cycle::underflows            0      0.00%      0.00% # Number of insts commited each cycle
system.cpu.commit.committed_per_cycle::0       414359      5.42%      5.42% # Number of insts commited each cycle
system.cpu.commit.committed_per_cycle::1      2820327     36.87%     42.29% # Number of insts commited each cycle
system.cpu.commit.committed_per_cycle::2      1339313     17.51%     59.80% # Number of insts commited each cycle
system.cpu.commit.committed_per_cycle::3       876677     11.46%     71.26% # Number of insts commited each cycle
system.cpu.commit.committed_per_cycle::4      1038264     13.57%     84.84% # Number of insts commited each cycle
system.cpu.commit.committed_per_cycle::5       168632      2.20%     87.04% # Number of insts commited each cycle
system.cpu.commit.committed_per_cycle::6       376605      4.92%     91.97% # Number of insts commited each cycle
system.cpu.commit.committed_per_cycle::7       104572      1.37%     93.34% # Number of insts commited each cycle
system.cpu.commit.committed_per_cycle::8       509753      6.66%    100.00% # Number of insts commited each cycle
system.cpu.commit.committed_per_cycle::overflows            0      0.00%    100.00% # Number of insts commited each cycle
system.cpu.commit.committed_per_cycle::min_value            0                       # Number of insts commited each cycle
system.cpu.commit.committed_per_cycle::max_value            8                       # Number of insts commited each cycle
system.cpu.commit.committed_per_cycle::total      7648502                       # Number of insts commited each cycle
system.cpu.commit.fp_insts                          0                       # Number of committed floating point instructions.
system.cpu.commit.function_calls               500260                       # Number of function calls committed.
system.cpu.commit.int_insts                  18236846                       # Number of committed integer instructions.
system.cpu.commit.loads                       2802484                       # Number of loads committed
system.cpu.commit.membars                          18                       # Number of memory barriers committed
system.cpu.commit.op_class_0::No_OpClass            0      0.00%      0.00% # Class of committed instruction
system.cpu.commit.op_class_0::IntAlu         16690152     82.65%     82.65% # Class of committed instruction
system.cpu.commit.op_class_0::IntMult              60      0.00%     82.65% # Class of committed instruction
system.cpu.commit.op_class_0::IntDiv                0      0.00%     82.65% # Class of committed instruction
system.cpu.commit.op_class_0::FloatAdd              0      0.00%     82.65% # Class of committed instruction
system.cpu.commit.op_class_0::FloatCmp              0      0.00%     82.65% # Class of committed instruction
system.cpu.commit.op_class_0::FloatCvt              0      0.00%     82.65% # Class of committed instruction
system.cpu.commit.op_class_0::FloatMult             0      0.00%     82.65% # Class of committed instruction
system.cpu.commit.op_class_0::FloatMultAcc            0      0.00%     82.65% # Class of committed instruction
system.cpu.commit.op_class_0::FloatDiv              0      0.00%     82.65% # Class of committed instruction
system.cpu.commit.op_class_0::FloatMisc             0      0.00%     82.65% # Class of committed instruction
system.cpu.commit.op_class_0::FloatSqrt             0      0.00%     82.65% # Class of committed instruction
system.cpu.commit.op_class_0::SimdAdd               0      0.00%     82.65% # Class of committed instruction
system.cpu.commit.op_class_0::SimdAddAcc            0      0.00%     82.65% # Class of committed instruction
system.cpu.commit.op_class_0::SimdAlu               0      0.00%     82.65% # Class of committed instruction
system.cpu.commit.op_class_0::SimdCmp               0      0.00%     82.65% # Class of committed instruction
system.cpu.commit.op_class_0::SimdCvt               0      0.00%     82.65% # Class of committed instruction
system.cpu.commit.op_class_0::SimdMisc              0      0.00%     82.65% # Class of committed instruction
system.cpu.commit.op_class_0::SimdMult              0      0.00%     82.65% # Class of committed instruction
system.cpu.commit.op_class_0::SimdMultAcc            0      0.00%     82.65% # Class of committed instruction
system.cpu.commit.op_class_0::SimdShift             0      0.00%     82.65% # Class of committed instruction
system.cpu.commit.op_class_0::SimdShiftAcc            0      0.00%     82.65% # Class of committed instruction
system.cpu.commit.op_class_0::SimdDiv               0      0.00%     82.65% # Class of committed instruction
system.cpu.commit.op_class_0::SimdSqrt              0      0.00%     82.65% # Class of committed instruction
system.cpu.commit.op_class_0::SimdFloatAdd            0      0.00%     82.65% # Class of committed instruction
system.cpu.commit.op_class_0::SimdFloatAlu            0      0.00%     82.65% # Class of committed instruction
system.cpu.commit.op_class_0::SimdFloatCmp            0      0.00%     82.65% # Class of committed instruction
system.cpu.commit.op_class_0::SimdFloatCvt            0      0.00%     82.65% # Class of committed instruction
system.cpu.commit.op_class_0::SimdFloatDiv            0      0.00%     82.65% # Class of committed instruction
system.cpu.commit.op_class_0::SimdFloatMisc            1      0.00%     82.65% # Class of committed instruction
system.cpu.commit.op_class_0::SimdFloatMult            0      0.00%     82.65% # Class of committed instruction
system.cpu.commit.op_class_0::SimdFloatMultAcc            0      0.00%     82.65% # Class of committed instruction
system.cpu.commit.op_class_0::SimdFloatSqrt            0      0.00%     82.65% # Class of committed instruction
system.cpu.commit.op_class_0::SimdReduceAdd            0      0.00%     82.65% # Class of committed instruction
system.cpu.commit.op_class_0::SimdReduceAlu            0      0.00%     82.65% # Class of committed instruction
system.cpu.commit.op_class_0::SimdReduceCmp            0      0.00%     82.65% # Class of committed instruction
system.cpu.commit.op_class_0::SimdFloatReduceAdd            0      0.00%     82.65% # Class of committed instruction
system.cpu.commit.op_class_0::SimdFloatReduceCmp            0      0.00%     82.65% # Class of committed instruction
system.cpu.commit.op_class_0::SimdAes               0      0.00%     82.65% # Class of committed instruction
system.cpu.commit.op_class_0::SimdAesMix            0      0.00%     82.65% # Class of committed instruction
system.cpu.commit.op_class_0::SimdSha1Hash            0      0.00%     82.65% # Class of committed instruction
system.cpu.commit.op_class_0::SimdSha1Hash2            0      0.00%     82.65% # Class of committed instruction
system.cpu.commit.op_class_0::SimdSha256Hash            0      0.00%     82.65% # Class of committed instruction
system.cpu.commit.op_class_0::SimdSha256Hash2            0      0.00%     82.65% # Class of committed instruction
system.cpu.commit.op_class_0::SimdShaSigma2            0      0.00%     82.65% # Class of committed instruction
system.cpu.commit.op_class_0::SimdShaSigma3            0      0.00%     82.65% # Class of committed instruction
system.cpu.commit.op_class_0::SimdPredAlu            0      0.00%     82.65% # Class of committed instruction
system.cpu.commit.op_class_0::MemRead         2802484     13.88%     96.52% # Class of committed instruction
system.cpu.commit.op_class_0::MemWrite         702161      3.48%    100.00% # Class of committed instruction
system.cpu.commit.op_class_0::FloatMemRead            0      0.00%    100.00% # Class of committed instruction
system.cpu.commit.op_class_0::FloatMemWrite            0      0.00%    100.00% # Class of committed instruction
system.cpu.commit.op_class_0::IprAccess             0      0.00%    100.00% # Class of committed instruction
system.cpu.commit.op_class_0::InstPrefetch            0      0.00%    100.00% # Class of committed instruction
system.cpu.commit.op_class_0::total          20194858                       # Class of committed instruction
system.cpu.commit.refs                        3504645                       # Number of memory references committed
system.cpu.commit.swp_count                         0                       # Number of s/w prefetches committed
system.cpu.commit.vec_insts                         0                       # Number of committed Vector instructions.
system.cpu.committedInsts                    20192793                       # Number of Instructions Simulated
system.cpu.committedOps                      20194858                       # Number of Ops (including micro ops) Simulated
system.cpu.cpi                               0.380944                       # CPI: Cycles Per Instruction
system.cpu.cpi_total                         0.380944                       # CPI: Total CPI of All Threads
system.cpu.dcache.LoadLockedReq_accesses::.cpu.data           19                       # number of LoadLockedReq accesses(hits+misses)
system.cpu.dcache.LoadLockedReq_accesses::total           19                       # number of LoadLockedReq accesses(hits+misses)
system.cpu.dcache.LoadLockedReq_avg_miss_latency::.cpu.data        10500                       # average LoadLockedReq miss latency
system.cpu.dcache.LoadLockedReq_avg_miss_latency::total        10500                       # average LoadLockedReq miss latency
system.cpu.dcache.LoadLockedReq_hits::.cpu.data           18                       # number of LoadLockedReq hits
system.cpu.dcache.LoadLockedReq_hits::total           18                       # number of LoadLockedReq hits
system.cpu.dcache.LoadLockedReq_miss_latency::.cpu.data        10500                       # number of LoadLockedReq miss cycles
system.cpu.dcache.LoadLockedReq_miss_latency::total        10500                       # number of LoadLockedReq miss cycles
system.cpu.dcache.LoadLockedReq_miss_rate::.cpu.data     0.052632                       # miss rate for LoadLockedReq accesses
system.cpu.dcache.LoadLockedReq_miss_rate::total     0.052632                       # miss rate for LoadLockedReq accesses
system.cpu.dcache.LoadLockedReq_misses::.cpu.data            1                       # number of LoadLockedReq misses
system.cpu.dcache.LoadLockedReq_misses::total            1                       # number of LoadLockedReq misses
system.cpu.dcache.LoadLockedReq_mshr_hits::.cpu.data            1                       # number of LoadLockedReq MSHR hits
system.cpu.dcache.LoadLockedReq_mshr_hits::total            1                       # number of LoadLockedReq MSHR hits
system.cpu.dcache.ReadReq_accesses::.cpu.data      1917769                       # number of ReadReq accesses(hits+misses)
system.cpu.dcache.ReadReq_accesses::total      1917769                       # number of ReadReq accesses(hits+misses)
system.cpu.dcache.ReadReq_avg_miss_latency::.cpu.data 11263.315606                       # average ReadReq miss latency
system.cpu.dcache.ReadReq_avg_miss_latency::total 11263.315606                       # average ReadReq miss latency
system.cpu.dcache.ReadReq_avg_mshr_miss_latency::.cpu.data 12462.904249                       # average ReadReq mshr miss latency
system.cpu.dcache.ReadReq_avg_mshr_miss_latency::total 12462.904249                       # average ReadReq mshr miss latency
system.cpu.dcache.ReadReq_hits::.cpu.data      1892573                       # number of ReadReq hits
system.cpu.dcache.ReadReq_hits::total         1892573                       # number of ReadReq hits
system.cpu.dcache.ReadReq_miss_latency::.cpu.data    283790500                       # number of ReadReq miss cycles
system.cpu.dcache.ReadReq_miss_latency::total    283790500                       # number of ReadReq miss cycles
system.cpu.dcache.ReadReq_miss_rate::.cpu.data     0.013138                       # miss rate for ReadReq accesses
system.cpu.dcache.ReadReq_miss_rate::total     0.013138                       # miss rate for ReadReq accesses
system.cpu.dcache.ReadReq_misses::.cpu.data        25196                       # number of ReadReq misses
system.cpu.dcache.ReadReq_misses::total         25196                       # number of ReadReq misses
system.cpu.dcache.ReadReq_mshr_hits::.cpu.data         6272                       # number of ReadReq MSHR hits
system.cpu.dcache.ReadReq_mshr_hits::total         6272                       # number of ReadReq MSHR hits
system.cpu.dcache.ReadReq_mshr_miss_latency::.cpu.data    235848000                       # number of ReadReq MSHR miss cycles
system.cpu.dcache.ReadReq_mshr_miss_latency::total    235848000                       # number of ReadReq MSHR miss cycles
system.cpu.dcache.ReadReq_mshr_miss_rate::.cpu.data     0.009868                       # mshr miss rate for ReadReq accesses
system.cpu.dcache.ReadReq_mshr_miss_rate::total     0.009868                       # mshr miss rate for ReadReq accesses
system.cpu.dcache.ReadReq_mshr_misses::.cpu.data        18924                       # number of ReadReq MSHR misses
system.cpu.dcache.ReadReq_mshr_misses::total        18924                       # number of ReadReq MSHR misses
system.cpu.dcache.StoreCondReq_accesses::.cpu.data           17                       # number of StoreCondReq accesses(hits+misses)
system.cpu.dcache.StoreCondReq_accesses::total           17                       # number of StoreCondReq accesses(hits+misses)
system.cpu.dcache.StoreCondReq_hits::.cpu.data           17                       # number of StoreCondReq hits
system.cpu.dcache.StoreCondReq_hits::total           17                       # number of StoreCondReq hits
system.cpu.dcache.WriteReq_accesses::.cpu.data       702061                       # number of WriteReq accesses(hits+misses)
system.cpu.dcache.WriteReq_accesses::total       702061                       # number of WriteReq accesses(hits+misses)
system.cpu.dcache.WriteReq_avg_miss_latency::.cpu.data 48867.468738                       # average WriteReq miss latency
system.cpu.dcache.WriteReq_avg_miss_latency::total 48867.468738                       # average WriteReq miss latency
system.cpu.dcache.WriteReq_avg_mshr_miss_latency::.cpu.data 82274.086801                       # average WriteReq mshr miss latency
system.cpu.dcache.WriteReq_avg_mshr_miss_latency::total 82274.086801                       # average WriteReq mshr miss latency
system.cpu.dcache.WriteReq_hits::.cpu.data       595637                       # number of WriteReq hits
system.cpu.dcache.WriteReq_hits::total         595637                       # number of WriteReq hits
system.cpu.dcache.WriteReq_miss_latency::.cpu.data   5200671493                       # number of WriteReq miss cycles
system.cpu.dcache.WriteReq_miss_latency::total   5200671493                       # number of WriteReq miss cycles
system.cpu.dcache.WriteReq_miss_rate::.cpu.data     0.151588                       # miss rate for WriteReq accesses
system.cpu.dcache.WriteReq_miss_rate::total     0.151588                       # miss rate for WriteReq accesses
system.cpu.dcache.WriteReq_misses::.cpu.data       106424                       # number of WriteReq misses
system.cpu.dcache.WriteReq_misses::total       106424                       # number of WriteReq misses
system.cpu.dcache.WriteReq_mshr_hits::.cpu.data        93855                       # number of WriteReq MSHR hits
system.cpu.dcache.WriteReq_mshr_hits::total        93855                       # number of WriteReq MSHR hits
system.cpu.dcache.WriteReq_mshr_miss_latency::.cpu.data   1034102997                       # number of WriteReq MSHR miss cycles
system.cpu.dcache.WriteReq_mshr_miss_latency::total   1034102997                       # number of WriteReq MSHR miss cycles
system.cpu.dcache.WriteReq_mshr_miss_rate::.cpu.data     0.017903                       # mshr miss rate for WriteReq accesses
system.cpu.dcache.WriteReq_mshr_miss_rate::total     0.017903                       # mshr miss rate for WriteReq accesses
system.cpu.dcache.WriteReq_mshr_misses::.cpu.data        12569                       # number of WriteReq MSHR misses
system.cpu.dcache.WriteReq_mshr_misses::total        12569                       # number of WriteReq MSHR misses
system.cpu.dcache.avg_blocked_cycles::no_mshrs    33.578947                       # average number of cycles each access was blocked
system.cpu.dcache.avg_blocked_cycles::no_targets          nan                       # average number of cycles each access was blocked
system.cpu.dcache.blocked::no_mshrs                19                       # number of cycles access was blocked
system.cpu.dcache.blocked::no_targets               0                       # number of cycles access was blocked
system.cpu.dcache.blocked_cycles::no_mshrs          638                       # number of cycles access was blocked
system.cpu.dcache.blocked_cycles::no_targets            0                       # number of cycles access was blocked
system.cpu.dcache.demand_accesses::.cpu.data      2619830                       # number of demand (read+write) accesses
system.cpu.dcache.demand_accesses::total      2619830                       # number of demand (read+write) accesses
system.cpu.dcache.demand_avg_miss_latency::.cpu.data 41668.910447                       # average overall miss latency
system.cpu.dcache.demand_avg_miss_latency::total 41668.910447                       # average overall miss latency
system.cpu.dcache.demand_avg_mshr_miss_latency::.cpu.data 40324.865748                       # average overall mshr miss latency
system.cpu.dcache.demand_avg_mshr_miss_latency::total 40324.865748                       # average overall mshr miss latency
system.cpu.dcache.demand_hits::.cpu.data      2488210                       # number of demand (read+write) hits
system.cpu.dcache.demand_hits::total          2488210                       # number of demand (read+write) hits
system.cpu.dcache.demand_miss_latency::.cpu.data   5484461993                       # number of demand (read+write) miss cycles
system.cpu.dcache.demand_miss_latency::total   5484461993                       # number of demand (read+write) miss cycles
system.cpu.dcache.demand_miss_rate::.cpu.data     0.050240                       # miss rate for demand accesses
system.cpu.dcache.demand_miss_rate::total     0.050240                       # miss rate for demand accesses
system.cpu.dcache.demand_misses::.cpu.data       131620                       # number of demand (read+write) misses
system.cpu.dcache.demand_misses::total         131620                       # number of demand (read+write) misses
system.cpu.dcache.demand_mshr_hits::.cpu.data       100127                       # number of demand (read+write) MSHR hits
system.cpu.dcache.demand_mshr_hits::total       100127                       # number of demand (read+write) MSHR hits
system.cpu.dcache.demand_mshr_miss_latency::.cpu.data   1269950997                       # number of demand (read+write) MSHR miss cycles
system.cpu.dcache.demand_mshr_miss_latency::total   1269950997                       # number of demand (read+write) MSHR miss cycles
system.cpu.dcache.demand_mshr_miss_rate::.cpu.data     0.012021                       # mshr miss rate for demand accesses
system.cpu.dcache.demand_mshr_miss_rate::total     0.012021                       # mshr miss rate for demand accesses
system.cpu.dcache.demand_mshr_misses::.cpu.data        31493                       # number of demand (read+write) MSHR misses
system.cpu.dcache.demand_mshr_misses::total        31493                       # number of demand (read+write) MSHR misses
system.cpu.dcache.overall_accesses::.cpu.data      2619830                       # number of overall (read+write) accesses
system.cpu.dcache.overall_accesses::total      2619830                       # number of overall (read+write) accesses
system.cpu.dcache.overall_avg_miss_latency::.cpu.data 41668.910447                       # average overall miss latency
system.cpu.dcache.overall_avg_miss_latency::total 41668.910447                       # average overall miss latency
system.cpu.dcache.overall_avg_mshr_miss_latency::.cpu.data 40324.865748                       # average overall mshr miss latency
system.cpu.dcache.overall_avg_mshr_miss_latency::total 40324.865748                       # average overall mshr miss latency
system.cpu.dcache.overall_hits::.cpu.data      2488210                       # number of overall hits
system.cpu.dcache.overall_hits::total         2488210                       # number of overall hits
system.cpu.dcache.overall_miss_latency::.cpu.data   5484461993                       # number of overall miss cycles
system.cpu.dcache.overall_miss_latency::total   5484461993                       # number of overall miss cycles
system.cpu.dcache.overall_miss_rate::.cpu.data     0.050240                       # miss rate for overall accesses
system.cpu.dcache.overall_miss_rate::total     0.050240                       # miss rate for overall accesses
system.cpu.dcache.overall_misses::.cpu.data       131620                       # number of overall misses
system.cpu.dcache.overall_misses::total        131620                       # number of overall misses
system.cpu.dcache.overall_mshr_hits::.cpu.data       100127                       # number of overall MSHR hits
system.cpu.dcache.overall_mshr_hits::total       100127                       # number of overall MSHR hits
system.cpu.dcache.overall_mshr_miss_latency::.cpu.data   1269950997                       # number of overall MSHR miss cycles
system.cpu.dcache.overall_mshr_miss_latency::total   1269950997                       # number of overall MSHR miss cycles
system.cpu.dcache.overall_mshr_miss_rate::.cpu.data     0.012021                       # mshr miss rate for overall accesses
system.cpu.dcache.overall_mshr_miss_rate::total     0.012021                       # mshr miss rate for overall accesses
system.cpu.dcache.overall_mshr_misses::.cpu.data        31493                       # number of overall MSHR misses
system.cpu.dcache.overall_mshr_misses::total        31493                       # number of overall MSHR misses
system.cpu.dcache.pwrStateResidencyTicks::UNDEFINED   3846166000                       # Cumulative time (in ticks) in various power states
system.cpu.dcache.replacements                  30469                       # number of replacements
system.cpu.dcache.tags.age_task_id_blocks_1024::0           50                       # Occupied blocks per task id
system.cpu.dcache.tags.age_task_id_blocks_1024::1          492                       # Occupied blocks per task id
system.cpu.dcache.tags.age_task_id_blocks_1024::2          480                       # Occupied blocks per task id
system.cpu.dcache.tags.age_task_id_blocks_1024::3            2                       # Occupied blocks per task id
system.cpu.dcache.tags.avg_refs             80.009462                       # Average number of references to valid blocks.
system.cpu.dcache.tags.data_accesses          5271225                       # Number of data accesses
system.cpu.dcache.tags.occ_blocks::.cpu.data  1011.042291                       # Average occupied blocks per requestor
system.cpu.dcache.tags.occ_percent::.cpu.data     0.987346                       # Average percentage of cache occupancy
system.cpu.dcache.tags.occ_percent::total     0.987346                       # Average percentage of cache occupancy
system.cpu.dcache.tags.occ_task_id_blocks::1024         1024                       # Occupied blocks per task id
system.cpu.dcache.tags.occ_task_id_percent::1024            1                       # Percentage of cache occupancy per task id
system.cpu.dcache.tags.pwrStateResidencyTicks::UNDEFINED   3846166000                       # Cumulative time (in ticks) in various power states
system.cpu.dcache.tags.sampled_refs             31493                       # Sample count of references to valid blocks.
system.cpu.dcache.tags.tag_accesses           5271225                       # Number of tag accesses
system.cpu.dcache.tags.tagsinuse          1011.042291                       # Cycle average of tags in use
system.cpu.dcache.tags.total_refs             2519738                       # Total number of references to valid blocks.
system.cpu.dcache.tags.warmup_cycle            105000                       # Cycle when the warmup percentage was hit.
system.cpu.dcache.writebacks::.writebacks        30391                       # number of writebacks
system.cpu.dcache.writebacks::total             30391                       # number of writebacks
system.cpu.decode.BlockedCycles               2216355                       # Number of cycles decode is blocked
system.cpu.decode.BranchMispred                   260                       # Number of times decode detected a branch misprediction
system.cpu.decode.BranchResolved              1445501                       # Number of times decode resolved a branch
system.cpu.decode.DecodedInsts               20210512                       # Number of instructions handled by decode
system.cpu.decode.IdleCycles                  2152824                       # Number of cycles decode is idle
system.cpu.decode.RunCycles                   2475464                       # Number of cycles decode is running
system.cpu.decode.SquashCycles                    709                       # Number of cycles decode is squashing
system.cpu.decode.SquashedInsts                   967                       # Number of squashed instructions handled by decode
system.cpu.decode.UnblockCycles                804984                       # Number of cycles decode is unblocking
system.cpu.dstage2_mmu.stage2_tlb.accesses            0                       # DTB accesses
system.cpu.dstage2_mmu.stage2_tlb.align_faults            0                       # Number of TLB faults due to alignment restrictions
system.cpu.dstage2_mmu.stage2_tlb.domain_faults            0                       # Number of TLB faults due to domain restrictions
system.cpu.dstage2_mmu.stage2_tlb.flush_entries            0                       # Number of entries that have been flushed from TLB
system.cpu.dstage2_mmu.stage2_tlb.flush_tlb            0                       # Number of times complete TLB was flushed
system.cpu.dstage2_mmu.stage2_tlb.flush_tlb_asid            0                       # Number of times TLB was flushed by ASID
system.cpu.dstage2_mmu.stage2_tlb.flush_tlb_mva            0                       # Number of times TLB was flushed by MVA
system.cpu.dstage2_mmu.stage2_tlb.flush_tlb_mva_asid            0                       # Number of times TLB was flushed by MVA & ASID
system.cpu.dstage2_mmu.stage2_tlb.hits              0                       # DTB hits
system.cpu.dstage2_mmu.stage2_tlb.inst_accesses            0                       # ITB inst accesses
system.cpu.dstage2_mmu.stage2_tlb.inst_hits            0                       # ITB inst hits
system.cpu.dstage2_mmu.stage2_tlb.inst_misses            0                       # ITB inst misses
system.cpu.dstage2_mmu.stage2_tlb.misses            0                       # DTB misses
system.cpu.dstage2_mmu.stage2_tlb.perms_faults            0                       # Number of TLB faults due to permissions restrictions
system.cpu.dstage2_mmu.stage2_tlb.prefetch_faults            0                       # Number of TLB faults due to prefetch
system.cpu.dstage2_mmu.stage2_tlb.read_accesses            0                       # DTB read accesses
system.cpu.dstage2_mmu.stage2_tlb.read_hits            0                       # DTB read hits
system.cpu.dstage2_mmu.stage2_tlb.read_misses            0                       # DTB read misses
system.cpu.dstage2_mmu.stage2_tlb.walker.pwrStateResidencyTicks::UNDEFINED   3846166000                       # Cumulative time (in ticks) in various power states
system.cpu.dstage2_mmu.stage2_tlb.walker.walkRequestOrigin_Requested::Data            0                       # Table walker requests started/completed, data/inst
system.cpu.dstage2_mmu.stage2_tlb.walker.walkRequestOrigin_Requested::Inst            0                       # Table walker requests started/completed, data/inst
system.cpu.dstage2_mmu.stage2_tlb.walker.walkRequestOrigin_Requested::total            0                       # Table walker requests started/completed, data/inst
system.cpu.dstage2_mmu.stage2_tlb.walker.walkRequestOrigin_Completed::Data            0                       # Table walker requests started/completed, data/inst
system.cpu.dstage2_mmu.stage2_tlb.walker.walkRequestOrigin_Completed::Inst            0                       # Table walker requests started/completed, data/inst
system.cpu.dstage2_mmu.stage2_tlb.walker.walkRequestOrigin_Completed::total            0                       # Table walker requests started/completed, data/inst
system.cpu.dstage2_mmu.stage2_tlb.walker.walkRequestOrigin::total            0                       # Table walker requests started/completed, data/inst
system.cpu.dstage2_mmu.stage2_tlb.walker.walks            0                       # Table walker walks requested
system.cpu.dstage2_mmu.stage2_tlb.write_accesses            0                       # DTB write accesses
system.cpu.dstage2_mmu.stage2_tlb.write_hits            0                       # DTB write hits
system.cpu.dstage2_mmu.stage2_tlb.write_misses            0                       # DTB write misses
system.cpu.dtb.accesses                             0                       # DTB accesses
system.cpu.dtb.align_faults                         0                       # Number of TLB faults due to alignment restrictions
system.cpu.dtb.domain_faults                        0                       # Number of TLB faults due to domain restrictions
system.cpu.dtb.flush_entries                        0                       # Number of entries that have been flushed from TLB
system.cpu.dtb.flush_tlb                            0                       # Number of times complete TLB was flushed
system.cpu.dtb.flush_tlb_asid                       0                       # Number of times TLB was flushed by ASID
system.cpu.dtb.flush_tlb_mva                        0                       # Number of times TLB was flushed by MVA
system.cpu.dtb.flush_tlb_mva_asid                   0                       # Number of times TLB was flushed by MVA & ASID
system.cpu.dtb.hits                                 0                       # DTB hits
system.cpu.dtb.inst_accesses                        0                       # ITB inst accesses
system.cpu.dtb.inst_hits                            0                       # ITB inst hits
system.cpu.dtb.inst_misses                          0                       # ITB inst misses
system.cpu.dtb.misses                               0                       # DTB misses
system.cpu.dtb.perms_faults                         0                       # Number of TLB faults due to permissions restrictions
system.cpu.dtb.prefetch_faults                      0                       # Number of TLB faults due to prefetch
system.cpu.dtb.read_accesses                        0                       # DTB read accesses
system.cpu.dtb.read_hits                            0                       # DTB read hits
system.cpu.dtb.read_misses                          0                       # DTB read misses
system.cpu.dtb.walker.pwrStateResidencyTicks::UNDEFINED   3846166000                       # Cumulative time (in ticks) in various power states
system.cpu.dtb.walker.walkRequestOrigin_Requested::Data            0                       # Table walker requests started/completed, data/inst
system.cpu.dtb.walker.walkRequestOrigin_Requested::Inst            0                       # Table walker requests started/completed, data/inst
system.cpu.dtb.walker.walkRequestOrigin_Requested::total            0                       # Table walker requests started/completed, data/inst
system.cpu.dtb.walker.walkRequestOrigin_Completed::Data            0                       # Table walker requests started/completed, data/inst
system.cpu.dtb.walker.walkRequestOrigin_Completed::Inst            0                       # Table walker requests started/completed, data/inst
system.cpu.dtb.walker.walkRequestOrigin_Completed::total            0                       # Table walker requests started/completed, data/inst
system.cpu.dtb.walker.walkRequestOrigin::total            0                       # Table walker requests started/completed, data/inst
system.cpu.dtb.walker.walks                         0                       # Table walker walks requested
system.cpu.dtb.write_accesses                       0                       # DTB write accesses
system.cpu.dtb.write_hits                           0                       # DTB write hits
system.cpu.dtb.write_misses                         0                       # DTB write misses
system.cpu.fetch.Branches                     3362134                       # Number of branches that fetch encountered
system.cpu.fetch.CacheLines                   3005098                       # Number of cache lines fetched
system.cpu.fetch.Cycles                       4632910                       # Number of cycles fetch has run and was not squashing or blocked
system.cpu.fetch.IcacheSquashes                   571                       # Number of outstanding Icache misses that were squashed
system.cpu.fetch.IcacheWaitRetryStallCycles           54                       # Number of stall cycles due to full MSHR
system.cpu.fetch.Insts                       20212327                       # Number of instructions fetch has processed
system.cpu.fetch.MiscStallCycles                  240                       # Number of cycles fetch has spent waiting on interrupts, or bad addresses, or out of MSHRs
system.cpu.fetch.PendingTrapStallCycles           309                       # Number of stall cycles due to pending traps
system.cpu.fetch.SquashCycles                    1926                       # Number of cycles fetch has spent squashing
system.cpu.fetch.branchRate                  0.437076                       # Number of branch fetches per cycle
system.cpu.fetch.icacheStallCycles            3015860                       # Number of cycles fetch is stalled on an Icache miss
system.cpu.fetch.predictedBranches            1946172                       # Number of branches that fetch has predicted taken
system.cpu.fetch.rate                        2.627594                       # Number of inst fetches per cycle
system.cpu.fetch.rateDist::samples            7650336                       # Number of instructions fetched each cycle (Total)
system.cpu.fetch.rateDist::mean              2.642541                       # Number of instructions fetched each cycle (Total)
system.cpu.fetch.rateDist::stdev             2.992565                       # Number of instructions fetched each cycle (Total)
system.cpu.fetch.rateDist::underflows               0      0.00%      0.00% # Number of instructions fetched each cycle (Total)
system.cpu.fetch.rateDist::0                  3587502     46.89%     46.89% # Number of instructions fetched each cycle (Total)
system.cpu.fetch.rateDist::1                   313647      4.10%     50.99% # Number of instructions fetched each cycle (Total)
system.cpu.fetch.rateDist::2                   391918      5.12%     56.12% # Number of instructions fetched each cycle (Total)
system.cpu.fetch.rateDist::3                   638442      8.35%     64.46% # Number of instructions fetched each cycle (Total)
system.cpu.fetch.rateDist::4                   336106      4.39%     68.85% # Number of instructions fetched each cycle (Total)
system.cpu.fetch.rateDist::5                   469643      6.14%     74.99% # Number of instructions fetched each cycle (Total)
system.cpu.fetch.rateDist::6                   828862     10.83%     85.83% # Number of instructions fetched each cycle (Total)
system.cpu.fetch.rateDist::7                   136018      1.78%     87.61% # Number of instructions fetched each cycle (Total)
system.cpu.fetch.rateDist::8                   948198     12.39%    100.00% # Number of instructions fetched each cycle (Total)
system.cpu.fetch.rateDist::overflows                0      0.00%    100.00% # Number of instructions fetched each cycle (Total)
system.cpu.fetch.rateDist::min_value                0                       # Number of instructions fetched each cycle (Total)
system.cpu.fetch.rateDist::max_value                8                       # Number of instructions fetched each cycle (Total)
system.cpu.fetch.rateDist::total              7650336                       # Number of instructions fetched each cycle (Total)
system.cpu.icache.ReadReq_accesses::.cpu.inst      3005095                       # number of ReadReq accesses(hits+misses)
system.cpu.icache.ReadReq_accesses::total      3005095                       # number of ReadReq accesses(hits+misses)
system.cpu.icache.ReadReq_avg_miss_latency::.cpu.inst 70054.811497                       # average ReadReq miss latency
system.cpu.icache.ReadReq_avg_miss_latency::total 70054.811497                       # average ReadReq miss latency
system.cpu.icache.ReadReq_avg_mshr_miss_latency::.cpu.inst 73284.208772                       # average ReadReq mshr miss latency
system.cpu.icache.ReadReq_avg_mshr_miss_latency::total 73284.208772                       # average ReadReq mshr miss latency
system.cpu.icache.ReadReq_hits::.cpu.inst      3004347                       # number of ReadReq hits
system.cpu.icache.ReadReq_hits::total         3004347                       # number of ReadReq hits
system.cpu.icache.ReadReq_miss_latency::.cpu.inst     52400999                       # number of ReadReq miss cycles
system.cpu.icache.ReadReq_miss_latency::total     52400999                       # number of ReadReq miss cycles
system.cpu.icache.ReadReq_miss_rate::.cpu.inst     0.000249                       # miss rate for ReadReq accesses
system.cpu.icache.ReadReq_miss_rate::total     0.000249                       # miss rate for ReadReq accesses
system.cpu.icache.ReadReq_misses::.cpu.inst          748                       # number of ReadReq misses
system.cpu.icache.ReadReq_misses::total           748                       # number of ReadReq misses
system.cpu.icache.ReadReq_mshr_hits::.cpu.inst          178                       # number of ReadReq MSHR hits
system.cpu.icache.ReadReq_mshr_hits::total          178                       # number of ReadReq MSHR hits
system.cpu.icache.ReadReq_mshr_miss_latency::.cpu.inst     41771999                       # number of ReadReq MSHR miss cycles
system.cpu.icache.ReadReq_mshr_miss_latency::total     41771999                       # number of ReadReq MSHR miss cycles
system.cpu.icache.ReadReq_mshr_miss_rate::.cpu.inst     0.000190                       # mshr miss rate for ReadReq accesses
system.cpu.icache.ReadReq_mshr_miss_rate::total     0.000190                       # mshr miss rate for ReadReq accesses
system.cpu.icache.ReadReq_mshr_misses::.cpu.inst          570                       # number of ReadReq MSHR misses
system.cpu.icache.ReadReq_mshr_misses::total          570                       # number of ReadReq MSHR misses
system.cpu.icache.avg_blocked_cycles::no_mshrs    52.461538                       # average number of cycles each access was blocked
system.cpu.icache.avg_blocked_cycles::no_targets          nan                       # average number of cycles each access was blocked
system.cpu.icache.blocked::no_mshrs                13                       # number of cycles access was blocked
system.cpu.icache.blocked::no_targets               0                       # number of cycles access was blocked
system.cpu.icache.blocked_cycles::no_mshrs          682                       # number of cycles access was blocked
system.cpu.icache.blocked_cycles::no_targets            0                       # number of cycles access was blocked
system.cpu.icache.demand_accesses::.cpu.inst      3005095                       # number of demand (read+write) accesses
system.cpu.icache.demand_accesses::total      3005095                       # number of demand (read+write) accesses
system.cpu.icache.demand_avg_miss_latency::.cpu.inst 70054.811497                       # average overall miss latency
system.cpu.icache.demand_avg_miss_latency::total 70054.811497                       # average overall miss latency
system.cpu.icache.demand_avg_mshr_miss_latency::.cpu.inst 73284.208772                       # average overall mshr miss latency
system.cpu.icache.demand_avg_mshr_miss_latency::total 73284.208772                       # average overall mshr miss latency
system.cpu.icache.demand_hits::.cpu.inst      3004347                       # number of demand (read+write) hits
system.cpu.icache.demand_hits::total          3004347                       # number of demand (read+write) hits
system.cpu.icache.demand_miss_latency::.cpu.inst     52400999                       # number of demand (read+write) miss cycles
system.cpu.icache.demand_miss_latency::total     52400999                       # number of demand (read+write) miss cycles
system.cpu.icache.demand_miss_rate::.cpu.inst     0.000249                       # miss rate for demand accesses
system.cpu.icache.demand_miss_rate::total     0.000249                       # miss rate for demand accesses
system.cpu.icache.demand_misses::.cpu.inst          748                       # number of demand (read+write) misses
system.cpu.icache.demand_misses::total            748                       # number of demand (read+write) misses
system.cpu.icache.demand_mshr_hits::.cpu.inst          178                       # number of demand (read+write) MSHR hits
system.cpu.icache.demand_mshr_hits::total          178                       # number of demand (read+write) MSHR hits
system.cpu.icache.demand_mshr_miss_latency::.cpu.inst     41771999                       # number of demand (read+write) MSHR miss cycles
system.cpu.icache.demand_mshr_miss_latency::total     41771999                       # number of demand (read+write) MSHR miss cycles
system.cpu.icache.demand_mshr_miss_rate::.cpu.inst     0.000190                       # mshr miss rate for demand accesses
system.cpu.icache.demand_mshr_miss_rate::total     0.000190                       # mshr miss rate for demand accesses
system.cpu.icache.demand_mshr_misses::.cpu.inst          570                       # number of demand (read+write) MSHR misses
system.cpu.icache.demand_mshr_misses::total          570                       # number of demand (read+write) MSHR misses
system.cpu.icache.overall_accesses::.cpu.inst      3005095                       # number of overall (read+write) accesses
system.cpu.icache.overall_accesses::total      3005095                       # number of overall (read+write) accesses
system.cpu.icache.overall_avg_miss_latency::.cpu.inst 70054.811497                       # average overall miss latency
system.cpu.icache.overall_avg_miss_latency::total 70054.811497                       # average overall miss latency
system.cpu.icache.overall_avg_mshr_miss_latency::.cpu.inst 73284.208772                       # average overall mshr miss latency
system.cpu.icache.overall_avg_mshr_miss_latency::total 73284.208772                       # average overall mshr miss latency
system.cpu.icache.overall_hits::.cpu.inst      3004347                       # number of overall hits
system.cpu.icache.overall_hits::total         3004347                       # number of overall hits
system.cpu.icache.overall_miss_latency::.cpu.inst     52400999                       # number of overall miss cycles
system.cpu.icache.overall_miss_latency::total     52400999                       # number of overall miss cycles
system.cpu.icache.overall_miss_rate::.cpu.inst     0.000249                       # miss rate for overall accesses
system.cpu.icache.overall_miss_rate::total     0.000249                       # miss rate for overall accesses
system.cpu.icache.overall_misses::.cpu.inst          748                       # number of overall misses
system.cpu.icache.overall_misses::total           748                       # number of overall misses
system.cpu.icache.overall_mshr_hits::.cpu.inst          178                       # number of overall MSHR hits
system.cpu.icache.overall_mshr_hits::total          178                       # number of overall MSHR hits
system.cpu.icache.overall_mshr_miss_latency::.cpu.inst     41771999                       # number of overall MSHR miss cycles
system.cpu.icache.overall_mshr_miss_latency::total     41771999                       # number of overall MSHR miss cycles
system.cpu.icache.overall_mshr_miss_rate::.cpu.inst     0.000190                       # mshr miss rate for overall accesses
system.cpu.icache.overall_mshr_miss_rate::total     0.000190                       # mshr miss rate for overall accesses
system.cpu.icache.overall_mshr_misses::.cpu.inst          570                       # number of overall MSHR misses
system.cpu.icache.overall_mshr_misses::total          570                       # number of overall MSHR misses
system.cpu.icache.pwrStateResidencyTicks::UNDEFINED   3846166000                       # Cumulative time (in ticks) in various power states
system.cpu.icache.replacements                    166                       # number of replacements
system.cpu.icache.tags.age_task_id_blocks_1024::0          180                       # Occupied blocks per task id
system.cpu.icache.tags.age_task_id_blocks_1024::1           68                       # Occupied blocks per task id
system.cpu.icache.tags.age_task_id_blocks_1024::3          156                       # Occupied blocks per task id
system.cpu.icache.tags.avg_refs           5271.784211                       # Average number of references to valid blocks.
system.cpu.icache.tags.data_accesses          6010760                       # Number of data accesses
system.cpu.icache.tags.occ_blocks::.cpu.inst   252.425757                       # Average occupied blocks per requestor
system.cpu.icache.tags.occ_percent::.cpu.inst     0.493019                       # Average percentage of cache occupancy
system.cpu.icache.tags.occ_percent::total     0.493019                       # Average percentage of cache occupancy
system.cpu.icache.tags.occ_task_id_blocks::1024          404                       # Occupied blocks per task id
system.cpu.icache.tags.occ_task_id_percent::1024     0.789062                       # Percentage of cache occupancy per task id
system.cpu.icache.tags.pwrStateResidencyTicks::UNDEFINED   3846166000                       # Cumulative time (in ticks) in various power states
system.cpu.icache.tags.sampled_refs               570                       # Sample count of references to valid blocks.
system.cpu.icache.tags.tag_accesses           6010760                       # Number of tag accesses
system.cpu.icache.tags.tagsinuse           252.425757                       # Cycle average of tags in use
system.cpu.icache.tags.total_refs             3004917                       # Total number of references to valid blocks.
system.cpu.icache.tags.warmup_cycle             87500                       # Cycle when the warmup percentage was hit.
system.cpu.icache.writebacks::.writebacks          166                       # number of writebacks
system.cpu.icache.writebacks::total               166                       # number of writebacks
system.cpu.idleCycles                           41997                       # Total number of cycles that the CPU has spent unscheduled due to idling
system.cpu.iew.branchMispredicts                  700                       # Number of branch mispredicts detected at execute
system.cpu.iew.exec_branches                  3359641                       # Number of branches executed
system.cpu.iew.exec_nop                             0                       # number of nop insts executed
system.cpu.iew.exec_rate                     2.626075                       # Inst execution rate
system.cpu.iew.exec_refs                      3507019                       # number of memory reference insts executed
system.cpu.iew.exec_stores                     702657                       # Number of stores executed
system.cpu.iew.exec_swp                             0                       # number of swp insts executed
system.cpu.iew.iewBlockCycles                    1125                       # Number of cycles IEW is blocking
system.cpu.iew.iewDispLoadInsts               2804884                       # Number of dispatched load instructions
system.cpu.iew.iewDispNonSpecInsts                 40                       # Number of dispatched non-speculative instructions
system.cpu.iew.iewDispSquashedInsts               132                       # Number of squashed instructions skipped by dispatch
system.cpu.iew.iewDispStoreInsts               703188                       # Number of dispatched store instructions
system.cpu.iew.iewDispatchedInsts            20206216                       # Number of instructions dispatched to IQ
system.cpu.iew.iewExecLoadInsts               2804362                       # Number of load instructions executed
system.cpu.iew.iewExecSquashedInsts               579                       # Number of squashed instructions skipped in execute
system.cpu.iew.iewExecutedInsts              20200646                       # Number of executed instructions
system.cpu.iew.iewIQFullEvents                      0                       # Number of times the IQ has become full, causing a stall
system.cpu.iew.iewIdleCycles                        0                       # Number of cycles IEW is idle
system.cpu.iew.iewLSQFullEvents                    45                       # Number of times the LSQ has become full, causing a stall
system.cpu.iew.iewSquashCycles                    709                       # Number of cycles IEW is squashing
system.cpu.iew.iewUnblockCycles                    44                       # Number of cycles IEW is unblocking
system.cpu.iew.lsq.thread0.blockedLoads             0                       # Number of blocked loads due to partial load-store forwarding
system.cpu.iew.lsq.thread0.cacheBlocked            14                       # Number of times an access to memory failed due to the cache being blocked
system.cpu.iew.lsq.thread0.forwLoads           886313                       # Number of loads that had data forwarded from stores
system.cpu.iew.lsq.thread0.ignoredResponses            6                       # Number of memory responses ignored because the instruction is squashed
system.cpu.iew.lsq.thread0.invAddrLoads             0                       # Number of loads ignored due to an invalid address
system.cpu.iew.lsq.thread0.invAddrSwpfs             0                       # Number of software prefetches ignored due to an invalid address
system.cpu.iew.lsq.thread0.memOrderViolation           64                       # Number of memory ordering violations
system.cpu.iew.lsq.thread0.rescheduledLoads           64                       # Number of loads that were rescheduled
system.cpu.iew.lsq.thread0.squashedLoads         2400                       # Number of loads squashed
system.cpu.iew.lsq.thread0.squashedStores         1027                       # Number of stores squashed
system.cpu.iew.memOrderViolationEvents             64                       # Number of memory order violations
system.cpu.iew.predictedNotTakenIncorrect          492                       # Number of branches that were predicted not taken incorrectly
system.cpu.iew.predictedTakenIncorrect            208                       # Number of branches that were predicted taken incorrectly
system.cpu.iew.wb_consumers                  38206111                       # num instructions consuming a value
system.cpu.iew.wb_count                      20199922                       # cumulative count of insts written-back
system.cpu.iew.wb_fanout                     0.416062                       # average fanout of values written-back
system.cpu.iew.wb_producers                  15896119                       # num instructions producing a value
system.cpu.iew.wb_rate                       2.625981                       # insts written-back per cycle
system.cpu.iew.wb_sent                       20200094                       # cumulative count of insts sent to commit
system.cpu.int_regfile_reads                 25143940                       # number of integer regfile reads
system.cpu.int_regfile_writes                14180080                       # number of integer regfile writes
system.cpu.ipc                               2.625054                       # IPC: Instructions Per Cycle
system.cpu.ipc_total                         2.625054                       # IPC: Total IPC of All Threads
system.cpu.iq.FU_type_0::No_OpClass                10      0.00%      0.00% # Type of FU issued
system.cpu.iq.FU_type_0::IntAlu              16693868     82.64%     82.64% # Type of FU issued
system.cpu.iq.FU_type_0::IntMult                   66      0.00%     82.64% # Type of FU issued
system.cpu.iq.FU_type_0::IntDiv                     0      0.00%     82.64% # Type of FU issued
system.cpu.iq.FU_type_0::FloatAdd                   0      0.00%     82.64% # Type of FU issued
system.cpu.iq.FU_type_0::FloatCmp                   0      0.00%     82.64% # Type of FU issued
system.cpu.iq.FU_type_0::FloatCvt                   0      0.00%     82.64% # Type of FU issued
system.cpu.iq.FU_type_0::FloatMult                  0      0.00%     82.64% # Type of FU issued
system.cpu.iq.FU_type_0::FloatMultAcc               0      0.00%     82.64% # Type of FU issued
system.cpu.iq.FU_type_0::FloatDiv                   0      0.00%     82.64% # Type of FU issued
system.cpu.iq.FU_type_0::FloatMisc                  0      0.00%     82.64% # Type of FU issued
system.cpu.iq.FU_type_0::FloatSqrt                  0      0.00%     82.64% # Type of FU issued
system.cpu.iq.FU_type_0::SimdAdd                    0      0.00%     82.64% # Type of FU issued
system.cpu.iq.FU_type_0::SimdAddAcc                 0      0.00%     82.64% # Type of FU issued
system.cpu.iq.FU_type_0::SimdAlu                    0      0.00%     82.64% # Type of FU issued
system.cpu.iq.FU_type_0::SimdCmp                    0      0.00%     82.64% # Type of FU issued
system.cpu.iq.FU_type_0::SimdCvt                    0      0.00%     82.64% # Type of FU issued
system.cpu.iq.FU_type_0::SimdMisc                   0      0.00%     82.64% # Type of FU issued
system.cpu.iq.FU_type_0::SimdMult                   0      0.00%     82.64% # Type of FU issued
system.cpu.iq.FU_type_0::SimdMultAcc                0      0.00%     82.64% # Type of FU issued
system.cpu.iq.FU_type_0::SimdShift                  0      0.00%     82.64% # Type of FU issued
system.cpu.iq.FU_type_0::SimdShiftAcc               0      0.00%     82.64% # Type of FU issued
system.cpu.iq.FU_type_0::SimdDiv                    0      0.00%     82.64% # Type of FU issued
system.cpu.iq.FU_type_0::SimdSqrt                   0      0.00%     82.64% # Type of FU issued
system.cpu.iq.FU_type_0::SimdFloatAdd               0      0.00%     82.64% # Type of FU issued
system.cpu.iq.FU_type_0::SimdFloatAlu               0      0.00%     82.64% # Type of FU issued
system.cpu.iq.FU_type_0::SimdFloatCmp               0      0.00%     82.64% # Type of FU issued
system.cpu.iq.FU_type_0::SimdFloatCvt               0      0.00%     82.64% # Type of FU issued
system.cpu.iq.FU_type_0::SimdFloatDiv               0      0.00%     82.64% # Type of FU issued
system.cpu.iq.FU_type_0::SimdFloatMisc              1      0.00%     82.64% # Type of FU issued
system.cpu.iq.FU_type_0::SimdFloatMult              0      0.00%     82.64% # Type of FU issued
system.cpu.iq.FU_type_0::SimdFloatMultAcc            0      0.00%     82.64% # Type of FU issued
system.cpu.iq.FU_type_0::SimdFloatSqrt              0      0.00%     82.64% # Type of FU issued
system.cpu.iq.FU_type_0::SimdReduceAdd              0      0.00%     82.64% # Type of FU issued
system.cpu.iq.FU_type_0::SimdReduceAlu              0      0.00%     82.64% # Type of FU issued
system.cpu.iq.FU_type_0::SimdReduceCmp              0      0.00%     82.64% # Type of FU issued
system.cpu.iq.FU_type_0::SimdFloatReduceAdd            0      0.00%     82.64% # Type of FU issued
system.cpu.iq.FU_type_0::SimdFloatReduceCmp            0      0.00%     82.64% # Type of FU issued
system.cpu.iq.FU_type_0::SimdAes                    0      0.00%     82.64% # Type of FU issued
system.cpu.iq.FU_type_0::SimdAesMix                 0      0.00%     82.64% # Type of FU issued
system.cpu.iq.FU_type_0::SimdSha1Hash               0      0.00%     82.64% # Type of FU issued
system.cpu.iq.FU_type_0::SimdSha1Hash2              0      0.00%     82.64% # Type of FU issued
system.cpu.iq.FU_type_0::SimdSha256Hash             0      0.00%     82.64% # Type of FU issued
system.cpu.iq.FU_type_0::SimdSha256Hash2            0      0.00%     82.64% # Type of FU issued
system.cpu.iq.FU_type_0::SimdShaSigma2              0      0.00%     82.64% # Type of FU issued
system.cpu.iq.FU_type_0::SimdShaSigma3              0      0.00%     82.64% # Type of FU issued
system.cpu.iq.FU_type_0::SimdPredAlu                0      0.00%     82.64% # Type of FU issued
system.cpu.iq.FU_type_0::MemRead              2804550     13.88%     96.52% # Type of FU issued
system.cpu.iq.FU_type_0::MemWrite              702730      3.48%    100.00% # Type of FU issued
system.cpu.iq.FU_type_0::FloatMemRead               0      0.00%    100.00% # Type of FU issued
system.cpu.iq.FU_type_0::FloatMemWrite              0      0.00%    100.00% # Type of FU issued
system.cpu.iq.FU_type_0::IprAccess                  0      0.00%    100.00% # Type of FU issued
system.cpu.iq.FU_type_0::InstPrefetch               0      0.00%    100.00% # Type of FU issued
system.cpu.iq.FU_type_0::total               20201225                       # Type of FU issued
system.cpu.iq.fp_alu_accesses                       0                       # Number of floating point alu accesses
system.cpu.iq.fp_inst_queue_reads                   0                       # Number of floating instruction queue reads
system.cpu.iq.fp_inst_queue_wakeup_accesses            0                       # Number of floating instruction queue wakeup accesses
system.cpu.iq.fp_inst_queue_writes                  0                       # Number of floating instruction queue writes
system.cpu.iq.fu_busy_cnt                       10101                       # FU busy when requested
system.cpu.iq.fu_busy_rate                   0.000500                       # FU busy rate (busy events/executed inst)
system.cpu.iq.fu_full::No_OpClass                   0      0.00%      0.00% # attempts to use FU when none available
system.cpu.iq.fu_full::IntAlu                    9784     96.86%     96.86% # attempts to use FU when none available
system.cpu.iq.fu_full::IntMult                      0      0.00%     96.86% # attempts to use FU when none available
system.cpu.iq.fu_full::IntDiv                       0      0.00%     96.86% # attempts to use FU when none available
system.cpu.iq.fu_full::FloatAdd                     0      0.00%     96.86% # attempts to use FU when none available
system.cpu.iq.fu_full::FloatCmp                     0      0.00%     96.86% # attempts to use FU when none available
system.cpu.iq.fu_full::FloatCvt                     0      0.00%     96.86% # attempts to use FU when none available
system.cpu.iq.fu_full::FloatMult                    0      0.00%     96.86% # attempts to use FU when none available
system.cpu.iq.fu_full::FloatMultAcc                 0      0.00%     96.86% # attempts to use FU when none available
system.cpu.iq.fu_full::FloatDiv                     0      0.00%     96.86% # attempts to use FU when none available
system.cpu.iq.fu_full::FloatMisc                    0      0.00%     96.86% # attempts to use FU when none available
system.cpu.iq.fu_full::FloatSqrt                    0      0.00%     96.86% # attempts to use FU when none available
system.cpu.iq.fu_full::SimdAdd                      0      0.00%     96.86% # attempts to use FU when none available
system.cpu.iq.fu_full::SimdAddAcc                   0      0.00%     96.86% # attempts to use FU when none available
system.cpu.iq.fu_full::SimdAlu                      0      0.00%     96.86% # attempts to use FU when none available
system.cpu.iq.fu_full::SimdCmp                      0      0.00%     96.86% # attempts to use FU when none available
system.cpu.iq.fu_full::SimdCvt                      0      0.00%     96.86% # attempts to use FU when none available
system.cpu.iq.fu_full::SimdMisc                     0      0.00%     96.86% # attempts to use FU when none available
system.cpu.iq.fu_full::SimdMult                     0      0.00%     96.86% # attempts to use FU when none available
system.cpu.iq.fu_full::SimdMultAcc                  0      0.00%     96.86% # attempts to use FU when none available
system.cpu.iq.fu_full::SimdShift                    0      0.00%     96.86% # attempts to use FU when none available
system.cpu.iq.fu_full::SimdShiftAcc                 0      0.00%     96.86% # attempts to use FU when none available
system.cpu.iq.fu_full::SimdDiv                      0      0.00%     96.86% # attempts to use FU when none available
system.cpu.iq.fu_full::SimdSqrt                     0      0.00%     96.86% # attempts to use FU when none available
system.cpu.iq.fu_full::SimdFloatAdd                 0      0.00%     96.86% # attempts to use FU when none available
system.cpu.iq.fu_full::SimdFloatAlu                 0      0.00%     96.86% # attempts to use FU when none available
system.cpu.iq.fu_full::SimdFloatCmp                 0      0.00%     96.86% # attempts to use FU when none available
system.cpu.iq.fu_full::SimdFloatCvt                 0      0.00%     96.86% # attempts to use FU when none available
system.cpu.iq.fu_full::SimdFloatDiv                 0      0.00%     96.86% # attempts to use FU when none available
system.cpu.iq.fu_full::SimdFloatMisc                0      0.00%     96.86% # attempts to use FU when none available
system.cpu.iq.fu_full::SimdFloatMult                0      0.00%     96.86% # attempts to use FU when none available
system.cpu.iq.fu_full::SimdFloatMultAcc             0      0.00%     96.86% # attempts to use FU when none available
system.cpu.iq.fu_full::SimdFloatSqrt                0      0.00%     96.86% # attempts to use FU when none available
system.cpu.iq.fu_full::SimdReduceAdd                0      0.00%     96.86% # attempts to use FU when none available
system.cpu.iq.fu_full::SimdReduceAlu                0      0.00%     96.86% # attempts to use FU when none available
system.cpu.iq.fu_full::SimdReduceCmp                0      0.00%     96.86% # attempts to use FU when none available
system.cpu.iq.fu_full::SimdFloatReduceAdd            0      0.00%     96.86% # attempts to use FU when none available
system.cpu.iq.fu_full::SimdFloatReduceCmp            0      0.00%     96.86% # attempts to use FU when none available
system.cpu.iq.fu_full::SimdAes                      0      0.00%     96.86% # attempts to use FU when none available
system.cpu.iq.fu_full::SimdAesMix                   0      0.00%     96.86% # attempts to use FU when none available
system.cpu.iq.fu_full::SimdSha1Hash                 0      0.00%     96.86% # attempts to use FU when none available
system.cpu.iq.fu_full::SimdSha1Hash2                0      0.00%     96.86% # attempts to use FU when none available
system.cpu.iq.fu_full::SimdSha256Hash               0      0.00%     96.86% # attempts to use FU when none available
system.cpu.iq.fu_full::SimdSha256Hash2              0      0.00%     96.86% # attempts to use FU when none available
system.cpu.iq.fu_full::SimdShaSigma2                0      0.00%     96.86% # attempts to use FU when none available
system.cpu.iq.fu_full::SimdShaSigma3                0      0.00%     96.86% # attempts to use FU when none available
system.cpu.iq.fu_full::SimdPredAlu                  0      0.00%     96.86% # attempts to use FU when none available
system.cpu.iq.fu_full::MemRead                    154      1.52%     98.39% # attempts to use FU when none available
system.cpu.iq.fu_full::MemWrite                   163      1.61%    100.00% # attempts to use FU when none available
system.cpu.iq.fu_full::FloatMemRead                 0      0.00%    100.00% # attempts to use FU when none available
system.cpu.iq.fu_full::FloatMemWrite                0      0.00%    100.00% # attempts to use FU when none available
system.cpu.iq.fu_full::IprAccess                    0      0.00%    100.00% # attempts to use FU when none available
system.cpu.iq.fu_full::InstPrefetch                 0      0.00%    100.00% # attempts to use FU when none available
system.cpu.iq.int_alu_accesses               20211316                       # Number of integer alu accesses
system.cpu.iq.int_inst_queue_reads           48062909                       # Number of integer instruction queue reads
system.cpu.iq.int_inst_queue_wakeup_accesses     20199922                       # Number of integer instruction queue wakeup accesses
system.cpu.iq.int_inst_queue_writes          20217636                       # Number of integer instruction queue writes
system.cpu.iq.iqInstsAdded                   20206158                       # Number of instructions added to the IQ (excludes non-spec)
system.cpu.iq.iqInstsIssued                  20201225                       # Number of instructions issued
system.cpu.iq.iqNonSpecInstsAdded                  58                       # Number of non-speculative instructions added to the IQ
system.cpu.iq.iqSquashedInstsExamined           11357                       # Number of squashed instructions iterated over during squash; mainly for profiling
system.cpu.iq.iqSquashedInstsIssued                22                       # Number of squashed instructions issued
system.cpu.iq.iqSquashedNonSpecRemoved             12                       # Number of squashed non-spec instructions that were removed
system.cpu.iq.iqSquashedOperandsExamined        28890                       # Number of squashed operands that are examined and possibly removed from graph
system.cpu.iq.issued_per_cycle::samples       7650336                       # Number of insts issued each cycle
system.cpu.iq.issued_per_cycle::mean         2.640567                       # Number of insts issued each cycle
system.cpu.iq.issued_per_cycle::stdev        1.745090                       # Number of insts issued each cycle
system.cpu.iq.issued_per_cycle::underflows            0      0.00%      0.00% # Number of insts issued each cycle
system.cpu.iq.issued_per_cycle::0              454669      5.94%      5.94% # Number of insts issued each cycle
system.cpu.iq.issued_per_cycle::1             2049812     26.79%     32.74% # Number of insts issued each cycle
system.cpu.iq.issued_per_cycle::2             1663759     21.75%     54.48% # Number of insts issued each cycle
system.cpu.iq.issued_per_cycle::3             1155409     15.10%     69.59% # Number of insts issued each cycle
system.cpu.iq.issued_per_cycle::4             1022634     13.37%     82.95% # Number of insts issued each cycle
system.cpu.iq.issued_per_cycle::5              720032      9.41%     92.37% # Number of insts issued each cycle
system.cpu.iq.issued_per_cycle::6              437338      5.72%     98.08% # Number of insts issued each cycle
system.cpu.iq.issued_per_cycle::7              130520      1.71%     99.79% # Number of insts issued each cycle
system.cpu.iq.issued_per_cycle::8               16163      0.21%    100.00% # Number of insts issued each cycle
system.cpu.iq.issued_per_cycle::overflows            0      0.00%    100.00% # Number of insts issued each cycle
system.cpu.iq.issued_per_cycle::min_value            0                       # Number of insts issued each cycle
system.cpu.iq.issued_per_cycle::max_value            8                       # Number of insts issued each cycle
system.cpu.iq.issued_per_cycle::total         7650336                       # Number of insts issued each cycle
system.cpu.iq.rate                           2.626151                       # Inst issue rate
system.cpu.iq.vec_alu_accesses                      0                       # Number of vector alu accesses
system.cpu.iq.vec_inst_queue_reads                  0                       # Number of vector instruction queue reads
system.cpu.iq.vec_inst_queue_wakeup_accesses            0                       # Number of vector instruction queue wakeup accesses
system.cpu.iq.vec_inst_queue_writes                 0                       # Number of vector instruction queue writes
system.cpu.istage2_mmu.stage2_tlb.accesses            0                       # DTB accesses
system.cpu.istage2_mmu.stage2_tlb.align_faults            0                       # Number of TLB faults due to alignment restrictions
system.cpu.istage2_mmu.stage2_tlb.domain_faults            0                       # Number of TLB faults due to domain restrictions
system.cpu.istage2_mmu.stage2_tlb.flush_entries            0                       # Number of entries that have been flushed from TLB
system.cpu.istage2_mmu.stage2_tlb.flush_tlb            0                       # Number of times complete TLB was flushed
system.cpu.istage2_mmu.stage2_tlb.flush_tlb_asid            0                       # Number of times TLB was flushed by ASID
system.cpu.istage2_mmu.stage2_tlb.flush_tlb_mva            0                       # Number of times TLB was flushed by MVA
system.cpu.istage2_mmu.stage2_tlb.flush_tlb_mva_asid            0                       # Number of times TLB was flushed by MVA & ASID
system.cpu.istage2_mmu.stage2_tlb.hits              0                       # DTB hits
system.cpu.istage2_mmu.stage2_tlb.inst_accesses            0                       # ITB inst accesses
system.cpu.istage2_mmu.stage2_tlb.inst_hits            0                       # ITB inst hits
system.cpu.istage2_mmu.stage2_tlb.inst_misses            0                       # ITB inst misses
system.cpu.istage2_mmu.stage2_tlb.misses            0                       # DTB misses
system.cpu.istage2_mmu.stage2_tlb.perms_faults            0                       # Number of TLB faults due to permissions restrictions
system.cpu.istage2_mmu.stage2_tlb.prefetch_faults            0                       # Number of TLB faults due to prefetch
system.cpu.istage2_mmu.stage2_tlb.read_accesses            0                       # DTB read accesses
system.cpu.istage2_mmu.stage2_tlb.read_hits            0                       # DTB read hits
system.cpu.istage2_mmu.stage2_tlb.read_misses            0                       # DTB read misses
system.cpu.istage2_mmu.stage2_tlb.walker.pwrStateResidencyTicks::UNDEFINED   3846166000                       # Cumulative time (in ticks) in various power states
system.cpu.istage2_mmu.stage2_tlb.walker.walkRequestOrigin_Requested::Data            0                       # Table walker requests started/completed, data/inst
system.cpu.istage2_mmu.stage2_tlb.walker.walkRequestOrigin_Requested::Inst            0                       # Table walker requests started/completed, data/inst
system.cpu.istage2_mmu.stage2_tlb.walker.walkRequestOrigin_Requested::total            0                       # Table walker requests started/completed, data/inst
system.cpu.istage2_mmu.stage2_tlb.walker.walkRequestOrigin_Completed::Data            0                       # Table walker requests started/completed, data/inst
system.cpu.istage2_mmu.stage2_tlb.walker.walkRequestOrigin_Completed::Inst            0                       # Table walker requests started/completed, data/inst
system.cpu.istage2_mmu.stage2_tlb.walker.walkRequestOrigin_Completed::total            0                       # Table walker requests started/completed, data/inst
system.cpu.istage2_mmu.stage2_tlb.walker.walkRequestOrigin::total            0                       # Table walker requests started/completed, data/inst
system.cpu.istage2_mmu.stage2_tlb.walker.walks            0                       # Table walker walks requested
system.cpu.istage2_mmu.stage2_tlb.write_accesses            0                       # DTB write accesses
system.cpu.istage2_mmu.stage2_tlb.write_hits            0                       # DTB write hits
system.cpu.istage2_mmu.stage2_tlb.write_misses            0                       # DTB write misses
system.cpu.itb.accesses                             0                       # DTB accesses
system.cpu.itb.align_faults                         0                       # Number of TLB faults due to alignment restrictions
system.cpu.itb.domain_faults                        0                       # Number of TLB faults due to domain restrictions
system.cpu.itb.flush_entries                        0                       # Number of entries that have been flushed from TLB
system.cpu.itb.flush_tlb                            0                       # Number of times complete TLB was flushed
system.cpu.itb.flush_tlb_asid                       0                       # Number of times TLB was flushed by ASID
system.cpu.itb.flush_tlb_mva                        0                       # Number of times TLB was flushed by MVA
system.cpu.itb.flush_tlb_mva_asid                   0                       # Number of times TLB was flushed by MVA & ASID
system.cpu.itb.hits                                 0                       # DTB hits
system.cpu.itb.inst_accesses                        0                       # ITB inst accesses
system.cpu.itb.inst_hits                            0                       # ITB inst hits
system.cpu.itb.inst_misses                          0                       # ITB inst misses
system.cpu.itb.misses                               0                       # DTB misses
system.cpu.itb.perms_faults                         0                       # Number of TLB faults due to permissions restrictions
system.cpu.itb.prefetch_faults                      0                       # Number of TLB faults due to prefetch
system.cpu.itb.read_accesses                        0                       # DTB read accesses
system.cpu.itb.read_hits                            0                       # DTB read hits
system.cpu.itb.read_misses                          0                       # DTB read misses
system.cpu.itb.walker.pwrStateResidencyTicks::UNDEFINED   3846166000                       # Cumulative time (in ticks) in various power states
system.cpu.itb.walker.walkRequestOrigin_Requested::Data            0                       # Table walker requests started/completed, data/inst
system.cpu.itb.walker.walkRequestOrigin_Requested::Inst            0                       # Table walker requests started/completed, data/inst
system.cpu.itb.walker.walkRequestOrigin_Requested::total            0                       # Table walker requests started/completed, data/inst
system.cpu.itb.walker.walkRequestOrigin_Completed::Data            0                       # Table walker requests started/completed, data/inst
[...]
system.mem_ctrls.wrQLenPdf::19                      0                       # What write queue length does an incoming req see
system.mem_ctrls.wrQLenPdf::20                      0                       # What write queue length does an incoming req see
system.mem_ctrls.wrQLenPdf::21                      0                       # What write queue length does an incoming req see
system.mem_ctrls.wrQLenPdf::22                      0                       # What write queue length does an incoming req see
system.mem_ctrls.wrQLenPdf::23                      0                       # What write queue length does an incoming req see
system.mem_ctrls.wrQLenPdf::24                      0                       # What write queue length does an incoming req see
system.mem_ctrls.wrQLenPdf::25                      0                       # What write queue length does an incoming req see
system.mem_ctrls.wrQLenPdf::26                      0                       # What write queue length does an incoming req see
system.mem_ctrls.wrQLenPdf::27                      0                       # What write queue length does an incoming req see
system.mem_ctrls.wrQLenPdf::28                      0                       # What write queue length does an incoming req see
system.mem_ctrls.wrQLenPdf::29                      0                       # What write queue length does an incoming req see
system.mem_ctrls.wrQLenPdf::30                      0                       # What write queue length does an incoming req see
system.mem_ctrls.wrQLenPdf::31                      0                       # What write queue length does an incoming req see
system.mem_ctrls.wrQLenPdf::32                      0                       # What write queue length does an incoming req see
system.mem_ctrls.wrQLenPdf::33                      0                       # What write queue length does an incoming req see
system.mem_ctrls.wrQLenPdf::34                      0                       # What write queue length does an incoming req see
system.mem_ctrls.wrQLenPdf::35                      0                       # What write queue length does an incoming req see
system.mem_ctrls.wrQLenPdf::36                      0                       # What write queue length does an incoming req see
system.mem_ctrls.wrQLenPdf::37                      0                       # What write queue length does an incoming req see
system.mem_ctrls.wrQLenPdf::38                      0                       # What write queue length does an incoming req see
system.mem_ctrls.wrQLenPdf::39                      0                       # What write queue length does an incoming req see
system.mem_ctrls.wrQLenPdf::40                      0                       # What write queue length does an incoming req see
system.mem_ctrls.wrQLenPdf::41                      0                       # What write queue length does an incoming req see
system.mem_ctrls.wrQLenPdf::42                      0                       # What write queue length does an incoming req see
system.mem_ctrls.wrQLenPdf::43                      0                       # What write queue length does an incoming req see
system.mem_ctrls.wrQLenPdf::44                      0                       # What write queue length does an incoming req see
system.mem_ctrls.wrQLenPdf::45                      0                       # What write queue length does an incoming req see
system.mem_ctrls.wrQLenPdf::46                      0                       # What write queue length does an incoming req see
system.mem_ctrls.wrQLenPdf::47                      0                       # What write queue length does an incoming req see
system.mem_ctrls.wrQLenPdf::48                      0                       # What write queue length does an incoming req see
system.mem_ctrls.wrQLenPdf::49                      0                       # What write queue length does an incoming req see
system.mem_ctrls.wrQLenPdf::50                      0                       # What write queue length does an incoming req see
system.mem_ctrls.wrQLenPdf::51                      0                       # What write queue length does an incoming req see
system.mem_ctrls.wrQLenPdf::52                      0                       # What write queue length does an incoming req see
system.mem_ctrls.wrQLenPdf::53                      0                       # What write queue length does an incoming req see
system.mem_ctrls.wrQLenPdf::54                      0                       # What write queue length does an incoming req see
system.mem_ctrls.wrQLenPdf::55                      0                       # What write queue length does an incoming req see
system.mem_ctrls.wrQLenPdf::56                      0                       # What write queue length does an incoming req see
system.mem_ctrls.wrQLenPdf::57                      0                       # What write queue length does an incoming req see
system.mem_ctrls.wrQLenPdf::58                      0                       # What write queue length does an incoming req see
system.mem_ctrls.wrQLenPdf::59                      0                       # What write queue length does an incoming req see
system.mem_ctrls.wrQLenPdf::60                      0                       # What write queue length does an incoming req see
system.mem_ctrls.wrQLenPdf::61                      0                       # What write queue length does an incoming req see
system.mem_ctrls.wrQLenPdf::62                      0                       # What write queue length does an incoming req see
system.mem_ctrls.wrQLenPdf::63                      0                       # What write queue length does an incoming req see
system.mem_ctrls.writeBursts                        0                       # Number of DRAM write bursts, including those merged in the write queue
system.mem_ctrls.writePktSize::0                    0                       # Write request sizes (log2)
system.mem_ctrls.writePktSize::1                    0                       # Write request sizes (log2)
system.mem_ctrls.writePktSize::2                    0                       # Write request sizes (log2)
system.mem_ctrls.writePktSize::3                    0                       # Write request sizes (log2)
system.mem_ctrls.writePktSize::4                    0                       # Write request sizes (log2)
system.mem_ctrls.writePktSize::5                    0                       # Write request sizes (log2)
system.mem_ctrls.writePktSize::6                    0                       # Write request sizes (log2)
system.mem_ctrls.writeReqs                          0                       # Number of write requests accepted
system.mem_ctrls.writeRowHitRate                  nan                       # Row buffer hit rate for writes
system.mem_ctrls.writeRowHits                       0                       # Number of row buffer hits during writes
system.mem_ctrls_0.actBackEnergy            319405200                       # Energy for active background per rank (pJ)
system.mem_ctrls_0.actEnergy                 10331580                       # Energy for activate commands per rank (pJ)
system.mem_ctrls_0.actPowerDownEnergy               0                       # Energy for active power-down per rank (pJ)
system.mem_ctrls_0.averagePower            492.241227                       # Core power per rank (mW)
system.mem_ctrls_0.memoryStateTime::IDLE   3133207500                       # Time in different power states
system.mem_ctrls_0.memoryStateTime::REF     128180000                       # Time in different power states
system.mem_ctrls_0.memoryStateTime::SREF            0                       # Time in different power states
system.mem_ctrls_0.memoryStateTime::PRE_PDN            0                       # Time in different power states
system.mem_ctrls_0.memoryStateTime::ACT     584778500                       # Time in different power states
system.mem_ctrls_0.memoryStateTime::ACT_PDN            0                       # Time in different power states
system.mem_ctrls_0.preBackEnergy           1207955040                       # Energy for precharge background per rank (pJ)
system.mem_ctrls_0.preEnergy                  5472390                       # Energy for precharge commands per rank (pJ)
system.mem_ctrls_0.prePowerDownEnergy               0                       # Energy for precharge power-down per rank (pJ)
system.mem_ctrls_0.readEnergy                47059740                       # Energy for read commands per rank (pJ)
system.mem_ctrls_0.refreshEnergy         303017520.000000                       # Energy for refresh commands per rank (pJ)
system.mem_ctrls_0.selfRefreshEnergy                0                       # Energy for self refresh per rank (pJ)
system.mem_ctrls_0.totalEnergy             1893241470                       # Total energy per rank (pJ)
system.mem_ctrls_0.totalIdleTime                    0                       # Total Idle time Per DRAM Rank
system.mem_ctrls_0.writeEnergy                      0                       # Energy for write commands per rank (pJ)
system.mem_ctrls_1.actBackEnergy            323235600                       # Energy for active background per rank (pJ)
system.mem_ctrls_1.actEnergy                 10424400                       # Energy for activate commands per rank (pJ)
system.mem_ctrls_1.actPowerDownEnergy               0                       # Energy for active power-down per rank (pJ)
system.mem_ctrls_1.averagePower            492.452142                       # Core power per rank (mW)
system.mem_ctrls_1.memoryStateTime::IDLE   3123773250                       # Time in different power states
system.mem_ctrls_1.memoryStateTime::REF     128180000                       # Time in different power states
system.mem_ctrls_1.memoryStateTime::SREF            0                       # Time in different power states
system.mem_ctrls_1.memoryStateTime::PRE_PDN            0                       # Time in different power states
system.mem_ctrls_1.memoryStateTime::ACT     594212750                       # Time in different power states
system.mem_ctrls_1.memoryStateTime::ACT_PDN            0                       # Time in different power states
system.mem_ctrls_1.preBackEnergy           1204729440                       # Energy for precharge background per rank (pJ)
system.mem_ctrls_1.preEnergy                  5521725                       # Energy for precharge commands per rank (pJ)
system.mem_ctrls_1.prePowerDownEnergy               0                       # Energy for precharge power-down per rank (pJ)
system.mem_ctrls_1.readEnergy                47124000                       # Energy for read commands per rank (pJ)
system.mem_ctrls_1.refreshEnergy         303017520.000000                       # Energy for refresh commands per rank (pJ)
system.mem_ctrls_1.selfRefreshEnergy                0                       # Energy for self refresh per rank (pJ)
system.mem_ctrls_1.totalEnergy             1894052685                       # Total energy per rank (pJ)
system.mem_ctrls_1.totalIdleTime                    0                       # Total Idle time Per DRAM Rank
system.mem_ctrls_1.writeEnergy                      0                       # Energy for write commands per rank (pJ)
system.membus.pkt_count_system.l2.mem_side::system.mem_ctrls.port        26382                       # Packet count per connected master and slave (bytes)
system.membus.pkt_count::total                  26382                       # Packet count per connected master and slave (bytes)
system.membus.pkt_size_system.l2.mem_side::system.mem_ctrls.port       844224                       # Cumulative packet size per connected master and slave (bytes)
system.membus.pkt_size::total                  844224                       # Cumulative packet size per connected master and slave (bytes)
system.membus.pwrStateResidencyTicks::UNDEFINED   3846166000                       # Cumulative time (in ticks) in various power states
system.membus.reqLayer0.occupancy            17022500                       # Layer occupancy (ticks)
system.membus.reqLayer0.utilization               0.4                       # Layer utilization (%)
system.membus.respLayer1.occupancy           69742750                       # Layer occupancy (ticks)
system.membus.respLayer1.utilization              1.8                       # Layer utilization (%)
system.membus.snoopTraffic                          0                       # Total snoop traffic (bytes)
system.membus.snoop_fanout::samples             13191                       # Request fanout histogram
system.membus.snoop_fanout::mean                    0                       # Request fanout histogram
system.membus.snoop_fanout::stdev                   0                       # Request fanout histogram
system.membus.snoop_fanout::underflows              0      0.00%      0.00% # Request fanout histogram
system.membus.snoop_fanout::0                   13191    100.00%    100.00% # Request fanout histogram
system.membus.snoop_fanout::1                       0      0.00%    100.00% # Request fanout histogram
system.membus.snoop_fanout::overflows               0      0.00%    100.00% # Request fanout histogram
system.membus.snoop_fanout::min_value               0                       # Request fanout histogram
system.membus.snoop_fanout::max_value               0                       # Request fanout histogram
system.membus.snoop_fanout::total               13191                       # Request fanout histogram
system.membus.snoop_filter.hit_multi_requests            0                       # Number of requests hitting in the snoop filter with multiple (>1) holders of the requested data.
system.membus.snoop_filter.hit_multi_snoops            0                       # Number of snoops hitting in the snoop filter with multiple (>1) holders of the requested data.
system.membus.snoop_filter.hit_single_requests            0                       # Number of requests hitting in the snoop filter with a single holder of the requested data.
system.membus.snoop_filter.hit_single_snoops            0                       # Number of snoops hitting in the snoop filter with a single holder of the requested data.
system.membus.snoop_filter.tot_requests         13191                       # Total number of requests made to the snoop filter.
system.membus.snoop_filter.tot_snoops               0                       # Total number of snoops made to the snoop filter.
system.membus.snoops                                0                       # Total snoops (count)
system.membus.trans_dist::ReadResp                638                       # Transaction distribution
system.membus.trans_dist::ReadExReq             12553                       # Transaction distribution
system.membus.trans_dist::ReadExResp            12553                       # Transaction distribution
system.membus.trans_dist::ReadSharedReq           638                       # Transaction distribution
system.tol2bus.pkt_count_system.cpu.icache.mem_side::system.l2.cpu_side         1306                       # Packet count per connected master and slave (bytes)
system.tol2bus.pkt_count_system.cpu.dcache.mem_side::system.l2.cpu_side        93455                       # Packet count per connected master and slave (bytes)
system.tol2bus.pkt_count::total                 94761                       # Packet count per connected master and slave (bytes)
system.tol2bus.pkt_size_system.cpu.icache.mem_side::system.l2.cpu_side        47104                       # Cumulative packet size per connected master and slave (bytes)
system.tol2bus.pkt_size_system.cpu.dcache.mem_side::system.l2.cpu_side      3960576                       # Cumulative packet size per connected master and slave (bytes)
system.tol2bus.pkt_size::total                4007680                       # Cumulative packet size per connected master and slave (bytes)
system.tol2bus.pwrStateResidencyTicks::UNDEFINED   3846166000                       # Cumulative time (in ticks) in various power states
system.tol2bus.reqLayer0.occupancy           61906000                       # Layer occupancy (ticks)
system.tol2bus.reqLayer0.utilization              1.6                       # Layer utilization (%)
system.tol2bus.respLayer0.occupancy            855499                       # Layer occupancy (ticks)
system.tol2bus.respLayer0.utilization             0.0                       # Layer utilization (%)
system.tol2bus.respLayer1.occupancy          47243492                       # Layer occupancy (ticks)
system.tol2bus.respLayer1.utilization             1.2                       # Layer utilization (%)
system.tol2bus.snoopTraffic                         0                       # Total snoop traffic (bytes)
system.tol2bus.snoop_fanout::samples            32063                       # Request fanout histogram
system.tol2bus.snoop_fanout::mean            0.001591                       # Request fanout histogram
system.tol2bus.snoop_fanout::stdev           0.039851                       # Request fanout histogram
system.tol2bus.snoop_fanout::underflows             0      0.00%      0.00% # Request fanout histogram
system.tol2bus.snoop_fanout::0                  32012     99.84%     99.84% # Request fanout histogram
system.tol2bus.snoop_fanout::1                     51      0.16%    100.00% # Request fanout histogram
system.tol2bus.snoop_fanout::2                      0      0.00%    100.00% # Request fanout histogram
system.tol2bus.snoop_fanout::overflows              0      0.00%    100.00% # Request fanout histogram
system.tol2bus.snoop_fanout::min_value              0                       # Request fanout histogram
system.tol2bus.snoop_fanout::max_value              1                       # Request fanout histogram
system.tol2bus.snoop_fanout::total              32063                       # Request fanout histogram
system.tol2bus.snoop_filter.hit_multi_requests           33                       # Number of requests hitting in the snoop filter with multiple (>1) holders of the requested data.
system.tol2bus.snoop_filter.hit_multi_snoops            0                       # Number of snoops hitting in the snoop filter with multiple (>1) holders of the requested data.
system.tol2bus.snoop_filter.hit_single_requests        30653                       # Number of requests hitting in the snoop filter with a single holder of the requested data.
system.tol2bus.snoop_filter.hit_single_snoops            0                       # Number of snoops hitting in the snoop filter with a single holder of the requested data.
system.tol2bus.snoop_filter.tot_requests        62698                       # Total number of requests made to the snoop filter.
system.tol2bus.snoop_filter.tot_snoops              0                       # Total number of snoops made to the snoop filter.
system.tol2bus.snoops                               0                       # Total snoops (count)
system.tol2bus.trans_dist::ReadResp             19494                       # Transaction distribution
system.tol2bus.trans_dist::WritebackDirty        30391                       # Transaction distribution
system.tol2bus.trans_dist::WritebackClean          166                       # Transaction distribution
system.tol2bus.trans_dist::CleanEvict              78                       # Transaction distribution
system.tol2bus.trans_dist::ReadExReq            12569                       # Transaction distribution
system.tol2bus.trans_dist::ReadExResp           12569                       # Transaction distribution
system.tol2bus.trans_dist::ReadCleanReq           570                       # Transaction distribution
system.tol2bus.trans_dist::ReadSharedReq        18924                       # Transaction distribution
system.voltage_domain.voltage                       1                       # Voltage in Volts

---------- End Simulation Statistics   ----------
