
---------- Begin Simulation Statistics ----------
final_tick                                 3739170000                       # Number of ticks from beginning of simulation (restored from checkpoints and never reset)
host_inst_rate                                 116573                       # Simulator instruction rate (inst/s)
host_mem_usage                                 840100                       # Number of bytes of host memory used
host_op_rate                                   116585                       # Simulator op (including micro ops) rate (op/s)
host_seconds                                   173.22                       # Real time elapsed on the host
host_tick_rate                               21586297                       # Simulator tick rate (ticks/s)
sim_freq                                 1000000000000                       # Frequency of simulated ticks
sim_insts                                    20192793                       # Number of instructions simulated
sim_ops                                      20194858                       # Number of ops (including micro ops) simulated
sim_seconds                                  0.003739                       # Number of seconds simulated
sim_ticks                                  3739170000                       # Number of ticks simulated
system.clk_domain.clock                          1000                       # Clock period in ticks
system.cpu.branchPred.BTBCorrect                    0                       # Number of correct BTB predictions (this stat may not work properly.
system.cpu.branchPred.BTBHitPct             87.724998                       # BTB Hit Percentage
system.cpu.branchPred.BTBHits                 1445622                       # Number of BTB hits
system.cpu.branchPred.BTBLookups              1647902                       # Number of BTB lookups
system.cpu.branchPred.RASInCorrect                 83                       # Number of incorrect RAS predictions.
system.cpu.branchPred.condIncorrect               901                       # Number of conditional branches incorrect
system.cpu.branchPred.condPredicted           2260596                       # Number of conditional branches predicted
system.cpu.branchPred.indirectHits                 43                       # Number of indirect target hits.
system.cpu.branchPred.indirectLookups             247                       # Number of indirect predictor lookups.
system.cpu.branchPred.indirectMisses              204                       # Number of indirect misses.
system.cpu.branchPred.lookups                 3362559                       # Number of BP lookups
system.cpu.branchPred.usedRAS                  500755                       # Number of times the RAS was used to get a target.
system.cpu.branchPredindirectMispredicted          106                       # Number of mispredicted indirect branches.
system.cpu.cc_regfile_reads                  69016545                       # number of cc regfile reads
system.cpu.cc_regfile_writes                 11990075                       # number of cc regfile writes
system.cpu.commit.amos                              0                       # Number of atomic instructions committed
system.cpu.commit.branchMispredicts               655                       # The number of times a branch was mispredicted
system.cpu.commit.branches                    3358697                       # Number of branches committed
system.cpu.commit.bw_lim_events                574911                       # number cycles where commit BW limit reached
system.cpu.commit.commitNonSpecStalls              46                       # The number of times commit has been forced to stall to communicate backwards
system.cpu.commit.commitSquashedInsts           14500                       # The number of squashed insts skipped by commit
system.cpu.commit.committedInsts             20192793                       # Number of instructions committed
system.cpu.commit.committedOps               20194858                       # Number of ops (including micro ops) committed
system.cpu.commit.committed_per_cycle::samples      7435121                       # Number of insts commited each cycle
system.cpu.commit.committed_per_cycle::mean     2.716144                       # Number of insts commited each cycle
system.cpu.commit.committed_per_cycle::stdev     2.187918                       # Number of insts commited each cycle
system.cpu.commit.committed_per_cycle::underflows            0      0.00%      0.00% # Number of insts commited each cycle
system.cpu.commit.committed_per_cycle::0       359487      4.83%      4.83% # Number of insts commited each cycle
system.cpu.commit.committed_per_cycle::1      2716167     36.53%     41.37% # Number of insts commited each cycle
system.cpu.commit.committed_per_cycle::2      1283415     17.26%     58.63% # Number of insts commited each cycle
system.cpu.commit.committed_per_cycle::3       854038     11.49%     70.11% # Number of insts commited each cycle
system.cpu.commit.committed_per_cycle::4      1036612     13.94%     84.06% # Number of insts commited each cycle
system.cpu.commit.committed_per_cycle::5       158086      2.13%     86.18% # Number of insts commited each cycle
system.cpu.commit.committed_per_cycle::6       353254      4.75%     90.93% # Number of insts commited each cycle
system.cpu.commit.committed_per_cycle::7        99151      1.33%     92.27% # Number of insts commited each cycle
system.cpu.commit.committed_per_cycle::8       574911      7.73%    100.00% # Number of insts commited each cycle
system.cpu.commit.committed_per_cycle::overflows            0      0.00%    100.00% # Number of insts commited each cycle
system.cpu.commit.committed_per_cycle::min_value            0                       # Number of insts commited each cycle
system.cpu.commit.committed_per_cycle::max_value            8                       # Number of insts commited each cycle
system.cpu.commit.committed_per_cycle::total      7435121                       # Number of insts commited each cycle
system.cpu.commit.fp_insts                          0                       # Number of committed floating point instructions.
system.cpu.commit.function_calls               500260                       # Number of function calls committed.
system.cpu.commit.int_insts                  18236846                       # Number of committed integer instructions.
system.cpu.commit.loads                       2802484                       # Number of loads committed
system.cpu.commit.membars                          18                       # Number of memory barriers committed
system.cpu.commit.op_class_0::No_OpClass            0      0.00%      0.00% # Class of committed instruction
system.cpu.commit.op_class_0::IntAlu         16690152     82.65%     82.65% # Class of committed instruction
system.cpu.commit.op_class_0::IntMult              60      0.00%     82.65% # Class of committed instruction
system.cpu.commit.op_class_0::IntDiv                0      0.00%     82.65% # Class of committed instruction
system.cpu.commit.op_class_0::FloatAdd              0      0.00%     82.65% # Class of committed instruction
system.cpu.commit.op_class_0::FloatCmp              0      0.00%     82.65% # Class of committed instruction
system.cpu.commit.op_class_0::FloatCvt              0      0.00%     82.65% # Class of committed instruction
system.cpu.commit.op_class_0::FloatMult             0      0.00%     82.65% # Class of committed instruction
system.cpu.commit.op_class_0::FloatMultAcc            0      0.00%     82.65% # Class of committed instruction
system.cpu.commit.op_class_0::FloatDiv              0      0.00%     82.65% # Class of committed instruction
system.cpu.commit.op_class_0::FloatMisc             0      0.00%     82.65% # Class of committed instruction
system.cpu.commit.op_class_0::FloatSqrt             0      0.00%     82.65% # Class of committed instruction
system.cpu.commit.op_class_0::SimdAdd               0      0.00%     82.65% # Class of committed instruction
system.cpu.commit.op_class_0::SimdAddAcc            0      0.00%     82.65% # Class of committed instruction
system.cpu.commit.op_class_0::SimdAlu               0      0.00%     82.65% # Class of committed instruction
system.cpu.commit.op_class_0::SimdCmp               0      0.00%     82.65% # Class of committed instruction
system.cpu.commit.op_class_0::SimdCvt               0      0.00%     82.65% # Class of committed instruction
system.cpu.commit.op_class_0::SimdMisc              0      0.00%     82.65% # Class of committed instruction
system.cpu.commit.op_class_0::SimdMult              0      0.00%     82.65% # Class of committed instruction
system.cpu.commit.op_class_0::SimdMultAcc            0      0.00%     82.65% # Class of committed instruction
system.cpu.commit.op_class_0::SimdShift             0      0.00%     82.65% # Class of committed instruction
system.cpu.commit.op_class_0::SimdShiftAcc            0      0.00%     82.65% # Class of committed instruction
system.cpu.commit.op_class_0::SimdDiv               0      0.00%     82.65% # Class of committed instruction
system.cpu.commit.op_class_0::SimdSqrt              0      0.00%     82.65% # Class of committed instruction
system.cpu.commit.op_class_0::SimdFloatAdd            0      0.00%     82.65% # Class of committed instruction
system.cpu.commit.op_class_0::SimdFloatAlu            0      0.00%     82.65% # Class of committed instruction
system.cpu.commit.op_class_0::SimdFloatCmp            0      0.00%     82.65% # Class of committed instruction
system.cpu.commit.op_class_0::SimdFloatCvt            0      0.00%     82.65% # Class of committed instruction
system.cpu.commit.op_class_0::SimdFloatDiv            0      0.00%     82.65% # Class of committed instruction
system.cpu.commit.op_class_0::SimdFloatMisc            1      0.00%     82.65% # Class of committed instruction
system.cpu.commit.op_class_0::SimdFloatMult            0      0.00%     82.65% # Class of committed instruction
system.cpu.commit.op_class_0::SimdFloatMultAcc            0      0.00%     82.65% # Class of committed instruction
system.cpu.commit.op_class_0::SimdFloatSqrt            0      0.00%     82.65% # Class of committed instruction
system.cpu.commit.op_class_0::SimdReduceAdd            0      0.00%     82.65% # Class of committed instruction
system.cpu.commit.op_class_0::SimdReduceAlu            0      0.00%     82.65% # Class of committed instruction
system.cpu.commit.op_class_0::SimdReduceCmp            0      0.00%     82.65% # Class of committed instruction
system.cpu.commit.op_class_0::SimdFloatReduceAdd            0      0.00%     82.65% # Class of committed instruction
system.cpu.commit.op_class_0::SimdFloatReduceCmp            0      0.00%     82.65% # Class of committed instruction
system.cpu.commit.op_class_0::SimdAes               0      0.00%     82.65% # Class of committed instruction
system.cpu.commit.op_class_0::SimdAesMix            0      0.00%     82.65% # Class of committed instruction
system.cpu.commit.op_class_0::SimdSha1Hash            0      0.00%     82.65% # Class of committed instruction
system.cpu.commit.op_class_0::SimdSha1Hash2            0      0.00%     82.65% # Class of committed instruction
system.cpu.commit.op_class_0::SimdSha256Hash            0      0.00%     82.65% # Class of committed instruction
system.cpu.commit.op_class_0::SimdSha256Hash2            0      0.00%     82.65% # Class of committed instruction
system.cpu.commit.op_class_0::SimdShaSigma2            0      0.00%     82.65% # Class of committed instruction
system.cpu.commit.op_class_0::SimdShaSigma3            0      0.00%     82.65% # Class of committed instruction
system.cpu.commit.op_class_0::SimdPredAlu            0      0.00%     82.65% # Class of committed instruction
system.cpu.commit.op_class_0::MemRead         2802484     13.88%     96.52% # Class of committed instruction
system.cpu.commit.op_class_0::MemWrite         702161      3.48%    100.00% # Class of committed instruction
system.cpu.commit.op_class_0::FloatMemRead            0      0.00%    100.00% # Class of committed instruction
system.cpu.commit.op_class_0::FloatMemWrite            0      0.00%    100.00% # Class of committed instruction
system.cpu.commit.op_class_0::IprAccess             0      0.00%    100.00% # Class of committed instruction
system.cpu.commit.op_class_0::InstPrefetch            0      0.00%    100.00% # Class of committed instruction
system.cpu.commit.op_class_0::total          20194858                       # Class of committed instruction
system.cpu.commit.refs                        3504645                       # Number of memory references committed
system.cpu.commit.swp_count                         0                       # Number of s/w prefetches committed
system.cpu.commit.vec_insts                         0                       # Number of committed Vector instructions.
system.cpu.committedInsts                    20192793                       # Number of Instructions Simulated
system.cpu.committedOps                      20194858                       # Number of Ops (including micro ops) Simulated
system.cpu.cpi                               0.370347                       # CPI: Cycles Per Instruction
system.cpu.cpi_total                         0.370347                       # CPI: Total CPI of All Threads
system.cpu.dcache.LoadLockedReq_accesses::.cpu.data           19                       # number of LoadLockedReq accesses(hits+misses)
system.cpu.dcache.LoadLockedReq_accesses::total           19                       # number of LoadLockedReq accesses(hits+misses)
system.cpu.dcache.LoadLockedReq_avg_miss_latency::.cpu.data        10500                       # average LoadLockedReq miss latency
system.cpu.dcache.LoadLockedReq_avg_miss_latency::total        10500                       # average LoadLockedReq miss latency
system.cpu.dcache.LoadLockedReq_hits::.cpu.data           18                       # number of LoadLockedReq hits
system.cpu.dcache.LoadLockedReq_hits::total           18                       # number of LoadLockedReq hits
system.cpu.dcache.LoadLockedReq_miss_latency::.cpu.data        10500                       # number of LoadLockedReq miss cycles
system.cpu.dcache.LoadLockedReq_miss_latency::total        10500                       # number of LoadLockedReq miss cycles
system.cpu.dcache.LoadLockedReq_miss_rate::.cpu.data     0.052632                       # miss rate for LoadLockedReq accesses
system.cpu.dcache.LoadLockedReq_miss_rate::total     0.052632                       # miss rate for LoadLockedReq accesses
system.cpu.dcache.LoadLockedReq_misses::.cpu.data            1                       # number of LoadLockedReq misses
system.cpu.dcache.LoadLockedReq_misses::total            1                       # number of LoadLockedReq misses
system.cpu.dcache.LoadLockedReq_mshr_hits::.cpu.data            1                       # number of LoadLockedReq MSHR hits
system.cpu.dcache.LoadLockedReq_mshr_hits::total            1                       # number of LoadLockedReq MSHR hits
system.cpu.dcache.ReadReq_accesses::.cpu.data      1815957                       # number of ReadReq accesses(hits+misses)
system.cpu.dcache.ReadReq_accesses::total      1815957                       # number of ReadReq accesses(hits+misses)
system.cpu.dcache.ReadReq_avg_miss_latency::.cpu.data 11311.566208                       # average ReadReq miss latency
system.cpu.dcache.ReadReq_avg_miss_latency::total 11311.566208                       # average ReadReq miss latency
system.cpu.dcache.ReadReq_avg_mshr_miss_latency::.cpu.data 12463.802579                       # average ReadReq mshr miss latency
system.cpu.dcache.ReadReq_avg_mshr_miss_latency::total 12463.802579                       # average ReadReq mshr miss latency
system.cpu.dcache.ReadReq_hits::.cpu.data      1790590                       # number of ReadReq hits
system.cpu.dcache.ReadReq_hits::total         1790590                       # number of ReadReq hits
system.cpu.dcache.ReadReq_miss_latency::.cpu.data    286940500                       # number of ReadReq miss cycles
system.cpu.dcache.ReadReq_miss_latency::total    286940500                       # number of ReadReq miss cycles
system.cpu.dcache.ReadReq_miss_rate::.cpu.data     0.013969                       # miss rate for ReadReq accesses
system.cpu.dcache.ReadReq_miss_rate::total     0.013969                       # miss rate for ReadReq accesses
system.cpu.dcache.ReadReq_misses::.cpu.data        25367                       # number of ReadReq misses
system.cpu.dcache.ReadReq_misses::total         25367                       # number of ReadReq misses
system.cpu.dcache.ReadReq_mshr_hits::.cpu.data         6443                       # number of ReadReq MSHR hits
system.cpu.dcache.ReadReq_mshr_hits::total         6443                       # number of ReadReq MSHR hits
system.cpu.dcache.ReadReq_mshr_miss_latency::.cpu.data    235865000                       # number of ReadReq MSHR miss cycles
system.cpu.dcache.ReadReq_mshr_miss_latency::total    235865000                       # number of ReadReq MSHR miss cycles
system.cpu.dcache.ReadReq_mshr_miss_rate::.cpu.data     0.010421                       # mshr miss rate for ReadReq accesses
system.cpu.dcache.ReadReq_mshr_miss_rate::total     0.010421                       # mshr miss rate for ReadReq accesses
system.cpu.dcache.ReadReq_mshr_misses::.cpu.data        18924                       # number of ReadReq MSHR misses
system.cpu.dcache.ReadReq_mshr_misses::total        18924                       # number of ReadReq MSHR misses
system.cpu.dcache.StoreCondReq_accesses::.cpu.data           17                       # number of StoreCondReq accesses(hits+misses)
system.cpu.dcache.StoreCondReq_accesses::total           17                       # number of StoreCondReq accesses(hits+misses)
system.cpu.dcache.StoreCondReq_hits::.cpu.data           17                       # number of StoreCondReq hits
system.cpu.dcache.StoreCondReq_hits::total           17                       # number of StoreCondReq hits
system.cpu.dcache.WriteReq_accesses::.cpu.data       702061                       # number of WriteReq accesses(hits+misses)
system.cpu.dcache.WriteReq_accesses::total       702061                       # number of WriteReq accesses(hits+misses)
system.cpu.dcache.WriteReq_avg_miss_latency::.cpu.data 48763.688339                       # average WriteReq miss latency
system.cpu.dcache.WriteReq_avg_miss_latency::total 48763.688339                       # average WriteReq miss latency
system.cpu.dcache.WriteReq_avg_mshr_miss_latency::.cpu.data 82216.285862                       # average WriteReq mshr miss latency
system.cpu.dcache.WriteReq_avg_mshr_miss_latency::total 82216.285862                       # average WriteReq mshr miss latency
system.cpu.dcache.WriteReq_hits::.cpu.data       595657                       # number of WriteReq hits
system.cpu.dcache.WriteReq_hits::total         595657                       # number of WriteReq hits
system.cpu.dcache.WriteReq_miss_latency::.cpu.data   5188651494                       # number of WriteReq miss cycles
system.cpu.dcache.WriteReq_miss_latency::total   5188651494                       # number of WriteReq miss cycles
system.cpu.dcache.WriteReq_miss_rate::.cpu.data     0.151559                       # miss rate for WriteReq accesses
system.cpu.dcache.WriteReq_miss_rate::total     0.151559                       # miss rate for WriteReq accesses
system.cpu.dcache.WriteReq_misses::.cpu.data       106404                       # number of WriteReq misses
system.cpu.dcache.WriteReq_misses::total       106404                       # number of WriteReq misses
system.cpu.dcache.WriteReq_mshr_hits::.cpu.data        93835                       # number of WriteReq MSHR hits
system.cpu.dcache.WriteReq_mshr_hits::total        93835                       # number of WriteReq MSHR hits
system.cpu.dcache.WriteReq_mshr_miss_latency::.cpu.data   1033376497                       # number of WriteReq MSHR miss cycles
system.cpu.dcache.WriteReq_mshr_miss_latency::total   1033376497                       # number of WriteReq MSHR miss cycles
system.cpu.dcache.WriteReq_mshr_miss_rate::.cpu.data     0.017903                       # mshr miss rate for WriteReq accesses
system.cpu.dcache.WriteReq_mshr_miss_rate::total     0.017903                       # mshr miss rate for WriteReq accesses
system.cpu.dcache.WriteReq_mshr_misses::.cpu.data        12569                       # number of WriteReq MSHR misses
system.cpu.dcache.WriteReq_mshr_misses::total        12569                       # number of WriteReq MSHR misses
system.cpu.dcache.avg_blocked_cycles::no_mshrs    28.722222                       # average number of cycles each access was blocked
system.cpu.dcache.avg_blocked_cycles::no_targets          nan                       # average number of cycles each access was blocked
system.cpu.dcache.blocked::no_mshrs                18                       # number of cycles access was blocked
system.cpu.dcache.blocked::no_targets               0                       # number of cycles access was blocked
system.cpu.dcache.blocked_cycles::no_mshrs          517                       # number of cycles access was blocked
system.cpu.dcache.blocked_cycles::no_targets            0                       # number of cycles access was blocked
system.cpu.dcache.demand_accesses::.cpu.data      2518018                       # number of demand (read+write) accesses
system.cpu.dcache.demand_accesses::total      2518018                       # number of demand (read+write) accesses
system.cpu.dcache.demand_avg_miss_latency::.cpu.data 41553.847159                       # average overall miss latency
system.cpu.dcache.demand_avg_miss_latency::total 41553.847159                       # average overall miss latency
system.cpu.dcache.demand_avg_mshr_miss_latency::.cpu.data 40302.336932                       # average overall mshr miss latency
system.cpu.dcache.demand_avg_mshr_miss_latency::total 40302.336932                       # average overall mshr miss latency
system.cpu.dcache.demand_hits::.cpu.data      2386247                       # number of demand (read+write) hits
system.cpu.dcache.demand_hits::total          2386247                       # number of demand (read+write) hits
system.cpu.dcache.demand_miss_latency::.cpu.data   5475591994                       # number of demand (read+write) miss cycles
system.cpu.dcache.demand_miss_latency::total   5475591994                       # number of demand (read+write) miss cycles
system.cpu.dcache.demand_miss_rate::.cpu.data     0.052331                       # miss rate for demand accesses
system.cpu.dcache.demand_miss_rate::total     0.052331                       # miss rate for demand accesses
system.cpu.dcache.demand_misses::.cpu.data       131771                       # number of demand (read+write) misses
system.cpu.dcache.demand_misses::total         131771                       # number of demand (read+write) misses
system.cpu.dcache.demand_mshr_hits::.cpu.data       100278                       # number of demand (read+write) MSHR hits
system.cpu.dcache.demand_mshr_hits::total       100278                       # number of demand (read+write) MSHR hits
system.cpu.dcache.demand_mshr_miss_latency::.cpu.data   1269241497                       # number of demand (read+write) MSHR miss cycles
system.cpu.dcache.demand_mshr_miss_latency::total   1269241497                       # number of demand (read+write) MSHR miss cycles
system.cpu.dcache.demand_mshr_miss_rate::.cpu.data     0.012507                       # mshr miss rate for demand accesses
system.cpu.dcache.demand_mshr_miss_rate::total     0.012507                       # mshr miss rate for demand accesses
system.cpu.dcache.demand_mshr_misses::.cpu.data        31493                       # number of demand (read+write) MSHR misses
system.cpu.dcache.demand_mshr_misses::total        31493                       # number of demand (read+write) MSHR misses
system.cpu.dcache.overall_accesses::.cpu.data      2518018                       # number of overall (read+write) accesses
system.cpu.dcache.overall_accesses::total      2518018                       # number of overall (read+write) accesses
system.cpu.dcache.overall_avg_miss_latency::.cpu.data 41553.847159                       # average overall miss latency
system.cpu.dcache.overall_avg_miss_latency::total 41553.847159                       # average overall miss latency
system.cpu.dcache.overall_avg_mshr_miss_latency::.cpu.data 40302.336932                       # average overall mshr miss latency
system.cpu.dcache.overall_avg_mshr_miss_latency::total 40302.336932                       # average overall mshr miss latency
system.cpu.dcache.overall_hits::.cpu.data      2386247                       # number of overall hits
system.cpu.dcache.overall_hits::total         2386247                       # number of overall hits
system.cpu.dcache.overall_miss_latency::.cpu.data   5475591994                       # number of overall miss cycles
system.cpu.dcache.overall_miss_latency::total   5475591994                       # number of overall miss cycles
system.cpu.dcache.overall_miss_rate::.cpu.data     0.052331                       # miss rate for overall accesses
system.cpu.dcache.overall_miss_rate::total     0.052331                       # miss rate for overall accesses
system.cpu.dcache.overall_misses::.cpu.data       131771                       # number of overall misses
system.cpu.dcache.overall_misses::total        131771                       # number of overall misses
system.cpu.dcache.overall_mshr_hits::.cpu.data       100278                       # number of overall MSHR hits
system.cpu.dcache.overall_mshr_hits::total       100278                       # number of overall MSHR hits
system.cpu.dcache.overall_mshr_miss_latency::.cpu.data   1269241497                       # number of overall MSHR miss cycles
system.cpu.dcache.overall_mshr_miss_latency::total   1269241497                       # number of overall MSHR miss cycles
system.cpu.dcache.overall_mshr_miss_rate::.cpu.data     0.012507                       # mshr miss rate for overall accesses
system.cpu.dcache.overall_mshr_miss_rate::total     0.012507                       # mshr miss rate for overall accesses
system.cpu.dcache.overall_mshr_misses::.cpu.data        31493                       # number of overall MSHR misses
system.cpu.dcache.overall_mshr_misses::total        31493                       # number of overall MSHR misses
system.cpu.dcache.pwrStateResidencyTicks::UNDEFINED   3739170000                       # Cumulative time (in ticks) in various power states
system.cpu.dcache.replacements                  30469                       # number of replacements
system.cpu.dcache.tags.age_task_id_blocks_1024::0           49                       # Occupied blocks per task id
system.cpu.dcache.tags.age_task_id_blocks_1024::1          508                       # Occupied blocks per task id
system.cpu.dcache.tags.age_task_id_blocks_1024::2          465                       # Occupied blocks per task id
system.cpu.dcache.tags.age_task_id_blocks_1024::3            2                       # Occupied blocks per task id
system.cpu.dcache.tags.avg_refs             76.771822                       # Average number of references to valid blocks.
system.cpu.dcache.tags.data_accesses          5067601                       # Number of data accesses
system.cpu.dcache.tags.occ_blocks::.cpu.data  1010.776087                       # Average occupied blocks per requestor
system.cpu.dcache.tags.occ_percent::.cpu.data     0.987086                       # Average percentage of cache occupancy
system.cpu.dcache.tags.occ_percent::total     0.987086                       # Average percentage of cache occupancy
system.cpu.dcache.tags.occ_task_id_blocks::1024         1024                       # Occupied blocks per task id
system.cpu.dcache.tags.occ_task_id_percent::1024            1                       # Percentage of cache occupancy per task id
system.cpu.dcache.tags.pwrStateResidencyTicks::UNDEFINED   3739170000                       # Cumulative time (in ticks) in various power states
system.cpu.dcache.tags.sampled_refs             31493                       # Sample count of references to valid blocks.
system.cpu.dcache.tags.tag_accesses           5067601                       # Number of tag accesses
system.cpu.dcache.tags.tagsinuse          1010.776087                       # Cycle average of tags in use
system.cpu.dcache.tags.total_refs             2417775                       # Total number of references to valid blocks.
system.cpu.dcache.tags.warmup_cycle            105000                       # Cycle when the warmup percentage was hit.
system.cpu.dcache.writebacks::.writebacks        30390                       # number of writebacks
system.cpu.dcache.writebacks::total             30390                       # number of writebacks
system.cpu.decode.BlockedCycles               1648690                       # Number of cycles decode is blocked
system.cpu.decode.BranchMispred                   262                       # Number of times decode detected a branch misprediction
system.cpu.decode.BranchResolved              1445735                       # Number of times decode resolved a branch
system.cpu.decode.DecodedInsts               20213713                       # Number of instructions handled by decode
system.cpu.decode.IdleCycles                  2361736                       # Number of cycles decode is idle
system.cpu.decode.RunCycles                   2766741                       # Number of cycles decode is running
system.cpu.decode.SquashCycles                    716                       # Number of cycles decode is squashing
system.cpu.decode.SquashedInsts                   970                       # Number of squashed instructions handled by decode
system.cpu.decode.UnblockCycles                659498                       # Number of cycles decode is unblocking
system.cpu.dstage2_mmu.stage2_tlb.accesses            0                       # DTB accesses
system.cpu.dstage2_mmu.stage2_tlb.align_faults            0                       # Number of TLB faults due to alignment restrictions
system.cpu.dstage2_mmu.stage2_tlb.domain_faults            0                       # Number of TLB faults due to domain restrictions
system.cpu.dstage2_mmu.stage2_tlb.flush_entries            0                       # Number of entries that have been flushed from TLB
system.cpu.dstage2_mmu.stage2_tlb.flush_tlb            0                       # Number of times complete TLB was flushed
system.cpu.dstage2_mmu.stage2_tlb.flush_tlb_asid            0                       # Number of times TLB was flushed by ASID
system.cpu.dstage2_mmu.stage2_tlb.flush_tlb_mva            0                       # Number of times TLB was flushed by MVA
system.cpu.dstage2_mmu.stage2_tlb.flush_tlb_mva_asid            0                       # Number of times TLB was flushed by MVA & ASID
system.cpu.dstage2_mmu.stage2_tlb.hits              0                       # DTB hits
system.cpu.dstage2_mmu.stage2_tlb.inst_accesses            0                       # ITB inst accesses
system.cpu.dstage2_mmu.stage2_tlb.inst_hits            0                       # ITB inst hits
system.cpu.dstage2_mmu.stage2_tlb.inst_misses            0                       # ITB inst misses
system.cpu.dstage2_mmu.stage2_tlb.misses            0                       # DTB misses
system.cpu.dstage2_mmu.stage2_tlb.perms_faults            0                       # Number of TLB faults due to permissions restrictions
system.cpu.dstage2_mmu.stage2_tlb.prefetch_faults            0                       # Number of TLB faults due to prefetch
system.cpu.dstage2_mmu.stage2_tlb.read_accesses            0                       # DTB read accesses
system.cpu.dstage2_mmu.stage2_tlb.read_hits            0                       # DTB read hits
system.cpu.dstage2_mmu.stage2_tlb.read_misses            0                       # DTB read misses
system.cpu.dstage2_mmu.stage2_tlb.walker.pwrStateResidencyTicks::UNDEFINED   3739170000                       # Cumulative time (in ticks) in various power states
system.cpu.dstage2_mmu.stage2_tlb.walker.walkRequestOrigin_Requested::Data            0                       # Table walker requests started/completed, data/inst
system.cpu.dstage2_mmu.stage2_tlb.walker.walkRequestOrigin_Requested::Inst            0                       # Table walker requests started/completed, data/inst
system.cpu.dstage2_mmu.stage2_tlb.walker.walkRequestOrigin_Requested::total            0                       # Table walker requests started/completed, data/inst
system.cpu.dstage2_mmu.stage2_tlb.walker.walkRequestOrigin_Completed::Data            0                       # Table walker requests started/completed, data/inst
system.cpu.dstage2_mmu.stage2_tlb.walker.walkRequestOrigin_Completed::Inst            0                       # Table walker requests started/completed, data/inst
system.cpu.dstage2_mmu.stage2_tlb.walker.walkRequestOrigin_Completed::total            0                       # Table walker requests started/completed, data/inst
system.cpu.dstage2_mmu.stage2_tlb.walker.walkRequestOrigin::total            0                       # Table walker requests started/completed, data/inst
system.cpu.dstage2_mmu.stage2_tlb.walker.walks            0                       # Table walker walks requested
system.cpu.dstage2_mmu.stage2_tlb.write_accesses            0                       # DTB write accesses
system.cpu.dstage2_mmu.stage2_tlb.write_hits            0                       # DTB write hits
system.cpu.dstage2_mmu.stage2_tlb.write_misses            0                       # DTB write misses
system.cpu.dtb.accesses                             0                       # DTB accesses
system.cpu.dtb.align_faults                         0                       # Number of TLB faults due to alignment restrictions
system.cpu.dtb.domain_faults                        0                       # Number of TLB faults due to domain restrictions
system.cpu.dtb.flush_entries                        0                       # Number of entries that have been flushed from TLB
system.cpu.dtb.flush_tlb                            0                       # Number of times complete TLB was flushed
system.cpu.dtb.flush_tlb_asid                       0                       # Number of times TLB was flushed by ASID
system.cpu.dtb.flush_tlb_mva                        0                       # Number of times TLB was flushed by MVA
system.cpu.dtb.flush_tlb_mva_asid                   0                       # Number of times TLB was flushed by MVA & ASID
system.cpu.dtb.hits                                 0                       # DTB hits
system.cpu.dtb.inst_accesses                        0                       # ITB inst accesses
system.cpu.dtb.inst_hits                            0                       # ITB inst hits
system.cpu.dtb.inst_misses                          0                       # ITB inst misses
system.cpu.dtb.misses                               0                       # DTB misses
system.cpu.dtb.perms_faults                         0                       # Number of TLB faults due to permissions restrictions
system.cpu.dtb.prefetch_faults                      0                       # Number of TLB faults due to prefetch
system.cpu.dtb.read_accesses                        0                       # DTB read accesses
system.cpu.dtb.read_hits                            0                       # DTB read hits
system.cpu.dtb.read_misses                          0                       # DTB read misses
system.cpu.dtb.walker.pwrStateResidencyTicks::UNDEFINED   3739170000                       # Cumulative time (in ticks) in various power states
system.cpu.dtb.walker.walkRequestOrigin_Requested::Data            0                       # Table walker requests started/completed, data/inst
system.cpu.dtb.walker.walkRequestOrigin_Requested::Inst            0                       # Table walker requests started/completed, data/inst
system.cpu.dtb.walker.walkRequestOrigin_Requested::total            0                       # Table walker requests started/completed, data/inst
system.cpu.dtb.walker.walkRequestOrigin_Completed::Data            0                       # Table walker requests started/completed, data/inst
system.cpu.dtb.walker.walkRequestOrigin_Completed::Inst            0                       # Table walker requests started/completed, data/inst
system.cpu.dtb.walker.walkRequestOrigin_Completed::total            0                       # Table walker requests started/completed, data/inst
system.cpu.dtb.walker.walkRequestOrigin::total            0                       # Table walker requests started/completed, data/inst
system.cpu.dtb.walker.walks                         0                       # Table walker walks requested
system.cpu.dtb.write_accesses                       0                       # DTB write accesses
system.cpu.dtb.write_hits                           0                       # DTB write hits
system.cpu.dtb.write_misses                         0                       # DTB write misses
system.cpu.fetch.Branches                     3362559                       # Number of branches that fetch encountered
system.cpu.fetch.CacheLines                   3005442                       # Number of cache lines fetched
system.cpu.fetch.Cycles                       4419540                       # Number of cycles fetch has run and was not squashing or blocked
system.cpu.fetch.IcacheSquashes                   595                       # Number of outstanding Icache misses that were squashed
system.cpu.fetch.IcacheWaitRetryStallCycles           54                       # Number of stall cycles due to full MSHR
system.cpu.fetch.Insts                       20214712                       # Number of instructions fetch has processed
system.cpu.fetch.MiscStallCycles                  266                       # Number of cycles fetch has spent waiting on interrupts, or bad addresses, or out of MSHRs
system.cpu.fetch.PendingTrapStallCycles           303                       # Number of stall cycles due to pending traps
system.cpu.fetch.SquashCycles                    1942                       # Number of cycles fetch has spent squashing
system.cpu.fetch.branchRate                  0.449640                       # Number of branch fetches per cycle
system.cpu.fetch.icacheStallCycles            3016247                       # Number of cycles fetch is stalled on an Icache miss
system.cpu.fetch.predictedBranches            1946420                       # Number of branches that fetch has predicted taken
system.cpu.fetch.rate                        2.703101                       # Number of inst fetches per cycle
system.cpu.fetch.rateDist::samples            7437381                       # Number of instructions fetched each cycle (Total)
system.cpu.fetch.rateDist::mean              2.718530                       # Number of instructions fetched each cycle (Total)
system.cpu.fetch.rateDist::stdev             3.024325                       # Number of instructions fetched each cycle (Total)
system.cpu.fetch.rateDist::underflows               0      0.00%      0.00% # Number of instructions fetched each cycle (Total)
system.cpu.fetch.rateDist::0                  3444592     46.31%     46.31% # Number of instructions fetched each cycle (Total)
system.cpu.fetch.rateDist::1                   288769      3.88%     50.20% # Number of instructions fetched each cycle (Total)
system.cpu.fetch.rateDist::2                   340959      4.58%     54.78% # Number of instructions fetched each cycle (Total)
system.cpu.fetch.rateDist::3                   618974      8.32%     63.10% # Number of instructions fetched each cycle (Total)
system.cpu.fetch.rateDist::4                   337510      4.54%     67.64% # Number of instructions fetched each cycle (Total)
system.cpu.fetch.rateDist::5                   479072      6.44%     74.08% # Number of instructions fetched each cycle (Total)
system.cpu.fetch.rateDist::6                   822764     11.06%     85.15% # Number of instructions fetched each cycle (Total)
system.cpu.fetch.rateDist::7                   128779      1.73%     86.88% # Number of instructions fetched each cycle (Total)
system.cpu.fetch.rateDist::8                   975962     13.12%    100.00% # Number of instructions fetched each cycle (Total)
system.cpu.fetch.rateDist::overflows                0      0.00%    100.00% # Number of instructions fetched each cycle (Total)
system.cpu.fetch.rateDist::min_value                0                       # Number of instructions fetched each cycle (Total)
system.cpu.fetch.rateDist::max_value                8                       # Number of instructions fetched each cycle (Total)
system.cpu.fetch.rateDist::total              7437381                       # Number of instructions fetched each cycle (Total)
system.cpu.icache.ReadReq_accesses::.cpu.inst      3005439                       # number of ReadReq accesses(hits+misses)
system.cpu.icache.ReadReq_accesses::total      3005439                       # number of ReadReq accesses(hits+misses)
system.cpu.icache.ReadReq_avg_miss_latency::.cpu.inst 69400.660927                       # average ReadReq miss latency
system.cpu.icache.ReadReq_avg_miss_latency::total 69400.660927                       # average ReadReq miss latency
system.cpu.icache.ReadReq_avg_mshr_miss_latency::.cpu.inst 73564.145870                       # average ReadReq mshr miss latency
system.cpu.icache.ReadReq_avg_mshr_miss_latency::total 73564.145870                       # average ReadReq mshr miss latency
system.cpu.icache.ReadReq_hits::.cpu.inst      3004684                       # number of ReadReq hits
system.cpu.icache.ReadReq_hits::total         3004684                       # number of ReadReq hits
system.cpu.icache.ReadReq_miss_latency::.cpu.inst     52397499                       # number of ReadReq miss cycles
system.cpu.icache.ReadReq_miss_latency::total     52397499                       # number of ReadReq miss cycles
system.cpu.icache.ReadReq_miss_rate::.cpu.inst     0.000251                       # miss rate for ReadReq accesses
system.cpu.icache.ReadReq_miss_rate::total     0.000251                       # miss rate for ReadReq accesses
system.cpu.icache.ReadReq_misses::.cpu.inst          755                       # number of ReadReq misses
system.cpu.icache.ReadReq_misses::total           755                       # number of ReadReq misses
system.cpu.icache.ReadReq_mshr_hits::.cpu.inst          186                       # number of ReadReq MSHR hits
system.cpu.icache.ReadReq_mshr_hits::total          186                       # number of ReadReq MSHR hits
system.cpu.icache.ReadReq_mshr_miss_latency::.cpu.inst     41857999                       # number of ReadReq MSHR miss cycles
system.cpu.icache.ReadReq_mshr_miss_latency::total     41857999                       # number of ReadReq MSHR miss cycles
system.cpu.icache.ReadReq_mshr_miss_rate::.cpu.inst     0.000189                       # mshr miss rate for ReadReq accesses
system.cpu.icache.ReadReq_mshr_miss_rate::total     0.000189                       # mshr miss rate for ReadReq accesses
system.cpu.icache.ReadReq_mshr_misses::.cpu.inst          569                       # number of ReadReq MSHR misses
system.cpu.icache.ReadReq_mshr_misses::total          569                       # number of ReadReq MSHR misses
system.cpu.icache.avg_blocked_cycles::no_mshrs    53.666667                       # average number of cycles each access was blocked
system.cpu.icache.avg_blocked_cycles::no_targets          nan                       # average number of cycles each access was blocked
system.cpu.icache.blocked::no_mshrs                12                       # number of cycles access was blocked
system.cpu.icache.blocked::no_targets               0                       # number of cycles access was blocked
system.cpu.icache.blocked_cycles::no_mshrs          644                       # number of cycles access was blocked
system.cpu.icache.blocked_cycles::no_targets            0                       # number of cycles access was blocked
system.cpu.icache.demand_accesses::.cpu.inst      3005439                       # number of demand (read+write) accesses
system.cpu.icache.demand_accesses::total      3005439                       # number of demand (read+write) accesses
system.cpu.icache.demand_avg_miss_latency::.cpu.inst 69400.660927                       # average overall miss latency
system.cpu.icache.demand_avg_miss_latency::total 69400.660927                       # average overall miss latency
system.cpu.icache.demand_avg_mshr_miss_latency::.cpu.inst 73564.145870                       # average overall mshr miss latency
system.cpu.icache.demand_avg_mshr_miss_latency::total 73564.145870                       # average overall mshr miss latency
system.cpu.icache.demand_hits::.cpu.inst      3004684                       # number of demand (read+write) hits
system.cpu.icache.demand_hits::total          3004684                       # number of demand (read+write) hits
system.cpu.icache.demand_miss_latency::.cpu.inst     52397499                       # number of demand (read+write) miss cycles
system.cpu.icache.demand_miss_latency::total     52397499                       # number of demand (read+write) miss cycles
system.cpu.icache.demand_miss_rate::.cpu.inst     0.000251                       # miss rate for demand accesses
system.cpu.icache.demand_miss_rate::total     0.000251                       # miss rate for demand accesses
system.cpu.icache.demand_misses::.cpu.inst          755                       # number of demand (read+write) misses
system.cpu.icache.demand_misses::total            755                       # number of demand (read+write) misses
system.cpu.icache.demand_mshr_hits::.cpu.inst          186                       # number of demand (read+write) MSHR hits
system.cpu.icache.demand_mshr_hits::total          186                       # number of demand (read+write) MSHR hits
system.cpu.icache.demand_mshr_miss_latency::.cpu.inst     41857999                       # number of demand (read+write) MSHR miss cycles
system.cpu.icache.demand_mshr_miss_latency::total     41857999                       # number of demand (read+write) MSHR miss cycles
system.cpu.icache.demand_mshr_miss_rate::.cpu.inst     0.000189                       # mshr miss rate for demand accesses
system.cpu.icache.demand_mshr_miss_rate::total     0.000189                       # mshr miss rate for demand accesses
system.cpu.icache.demand_mshr_misses::.cpu.inst          569                       # number of demand (read+write) MSHR misses
system.cpu.icache.demand_mshr_misses::total          569                       # number of demand (read+write) MSHR misses
system.cpu.icache.overall_accesses::.cpu.inst      3005439                       # number of overall (read+write) accesses
system.cpu.icache.overall_accesses::total      3005439                       # number of overall (read+write) accesses
system.cpu.icache.overall_avg_miss_latency::.cpu.inst 69400.660927                       # average overall miss latency
system.cpu.icache.overall_avg_miss_latency::total 69400.660927                       # average overall miss latency
system.cpu.icache.overall_avg_mshr_miss_latency::.cpu.inst 73564.145870                       # average overall mshr miss latency
system.cpu.icache.overall_avg_mshr_miss_latency::total 73564.145870                       # average overall mshr miss latency
system.cpu.icache.overall_hits::.cpu.inst      3004684                       # number of overall hits
system.cpu.icache.overall_hits::total         3004684                       # number of overall hits
system.cpu.icache.overall_miss_latency::.cpu.inst     52397499                       # number of overall miss cycles
system.cpu.icache.overall_miss_latency::total     52397499                       # number of overall miss cycles
system.cpu.icache.overall_miss_rate::.cpu.inst     0.000251                       # miss rate for overall accesses
system.cpu.icache.overall_miss_rate::total     0.000251                       # miss rate for overall accesses
system.cpu.icache.overall_misses::.cpu.inst          755                       # number of overall misses
system.cpu.icache.overall_misses::total           755                       # number of overall misses
system.cpu.icache.overall_mshr_hits::.cpu.inst          186                       # number of overall MSHR hits
system.cpu.icache.overall_mshr_hits::total          186                       # number of overall MSHR hits
system.cpu.icache.overall_mshr_miss_latency::.cpu.inst     41857999                       # number of overall MSHR miss cycles
system.cpu.icache.overall_mshr_miss_latency::total     41857999                       # number of overall MSHR miss cycles
system.cpu.icache.overall_mshr_miss_rate::.cpu.inst     0.000189                       # mshr miss rate for overall accesses
system.cpu.icache.overall_mshr_miss_rate::total     0.000189                       # mshr miss rate for overall accesses
system.cpu.icache.overall_mshr_misses::.cpu.inst          569                       # number of overall MSHR misses
system.cpu.icache.overall_mshr_misses::total          569                       # number of overall MSHR misses
system.cpu.icache.pwrStateResidencyTicks::UNDEFINED   3739170000                       # Cumulative time (in ticks) in various power states
system.cpu.icache.replacements                    165                       # number of replacements
system.cpu.icache.tags.age_task_id_blocks_1024::0          177                       # Occupied blocks per task id
system.cpu.icache.tags.age_task_id_blocks_1024::1           71                       # Occupied blocks per task id
system.cpu.icache.tags.age_task_id_blocks_1024::3          156                       # Occupied blocks per task id
system.cpu.icache.tags.avg_refs           5281.639719                       # Average number of references to valid blocks.
system.cpu.icache.tags.data_accesses          6011447                       # Number of data accesses
system.cpu.icache.tags.occ_blocks::.cpu.inst   251.335983                       # Average occupied blocks per requestor
system.cpu.icache.tags.occ_percent::.cpu.inst     0.490891                       # Average percentage of cache occupancy
system.cpu.icache.tags.occ_percent::total     0.490891                       # Average percentage of cache occupancy
system.cpu.icache.tags.occ_task_id_blocks::1024          404                       # Occupied blocks per task id
system.cpu.icache.tags.occ_task_id_percent::1024     0.789062                       # Percentage of cache occupancy per task id
system.cpu.icache.tags.pwrStateResidencyTicks::UNDEFINED   3739170000                       # Cumulative time (in ticks) in various power states
system.cpu.icache.tags.sampled_refs               569                       # Sample count of references to valid blocks.
system.cpu.icache.tags.tag_accesses           6011447                       # Number of tag accesses
system.cpu.icache.tags.tagsinuse           251.335983                       # Cycle average of tags in use
system.cpu.icache.tags.total_refs             3005253                       # Total number of references to valid blocks.
system.cpu.icache.tags.warmup_cycle             87500                       # Cycle when the warmup percentage was hit.
system.cpu.icache.writebacks::.writebacks          165                       # number of writebacks
system.cpu.icache.writebacks::total               165                       # number of writebacks
system.cpu.idleCycles                           40960                       # Total number of cycles that the CPU has spent unscheduled due to idling
system.cpu.iew.branchMispredicts                  703                       # Number of branch mispredicts detected at execute
system.cpu.iew.exec_branches                  3359854                       # Number of branches executed
system.cpu.iew.exec_nop                             0                       # number of nop insts executed
system.cpu.iew.exec_rate                     2.701349                       # Inst execution rate
system.cpu.iew.exec_refs                      3507344                       # number of memory reference insts executed
system.cpu.iew.exec_stores                     702690                       # Number of stores executed
system.cpu.iew.exec_swp                             0                       # number of swp insts executed
system.cpu.iew.iewBlockCycles                    1544                       # Number of cycles IEW is blocking
system.cpu.iew.iewDispLoadInsts               2805273                       # Number of dispatched load instructions
system.cpu.iew.iewDispNonSpecInsts                 41                       # Number of dispatched non-speculative instructions
system.cpu.iew.iewDispSquashedInsts               150                       # Number of squashed instructions skipped by dispatch
system.cpu.iew.iewDispStoreInsts               703309                       # Number of dispatched store instructions
system.cpu.iew.iewDispatchedInsts            20209391                       # Number of instructions dispatched to IQ
system.cpu.iew.iewExecLoadInsts               2804654                       # Number of load instructions executed
system.cpu.iew.iewExecSquashedInsts               607                       # Number of squashed instructions skipped in execute
system.cpu.iew.iewExecutedInsts              20201609                       # Number of executed instructions
system.cpu.iew.iewIQFullEvents                      0                       # Number of times the IQ has become full, causing a stall
system.cpu.iew.iewIdleCycles                        0                       # Number of cycles IEW is idle
system.cpu.iew.iewLSQFullEvents                    57                       # Number of times the LSQ has become full, causing a stall
system.cpu.iew.iewSquashCycles                    716                       # Number of cycles IEW is squashing
system.cpu.iew.iewUnblockCycles                    57                       # Number of cycles IEW is unblocking
system.cpu.iew.lsq.thread0.blockedLoads             0                       # Number of blocked loads due to partial load-store forwarding
system.cpu.iew.lsq.thread0.cacheBlocked            14                       # Number of times an access to memory failed due to the cache being blocked
system.cpu.iew.lsq.thread0.forwLoads           988417                       # Number of loads that had data forwarded from stores
system.cpu.iew.lsq.thread0.ignoredResponses            5                       # Number of memory responses ignored because the instruction is squashed
system.cpu.iew.lsq.thread0.invAddrLoads             0                       # Number of loads ignored due to an invalid address
system.cpu.iew.lsq.thread0.invAddrSwpfs             0                       # Number of software prefetches ignored due to an invalid address
system.cpu.iew.lsq.thread0.memOrderViolation           67                       # Number of memory ordering violations
system.cpu.iew.lsq.thread0.rescheduledLoads           74                       # Number of loads that were rescheduled
system.cpu.iew.lsq.thread0.squashedLoads         2789                       # Number of loads squashed
system.cpu.iew.lsq.thread0.squashedStores         1148                       # Number of stores squashed
system.cpu.iew.memOrderViolationEvents             67                       # Number of memory order violations
system.cpu.iew.predictedNotTakenIncorrect          490                       # Number of branches that were predicted not taken incorrectly
system.cpu.iew.predictedTakenIncorrect            213                       # Number of branches that were predicted taken incorrectly
system.cpu.iew.wb_consumers                  38509280                       # num instructions consuming a value
system.cpu.iew.wb_count                      20200840                       # cumulative count of insts written-back
system.cpu.iew.wb_fanout                     0.413906                       # average fanout of values written-back
system.cpu.iew.wb_producers                  15939229                       # num instructions producing a value
system.cpu.iew.wb_rate                       2.701246                       # insts written-back per cycle
system.cpu.iew.wb_sent                       20201013                       # cumulative count of insts sent to commit
system.cpu.int_regfile_reads                 25144940                       # number of integer regfile reads
system.cpu.int_regfile_writes                14180709                       # number of integer regfile writes
system.cpu.ipc                               2.700170                       # IPC: Instructions Per Cycle
system.cpu.ipc_total                         2.700170                       # IPC: Total IPC of All Threads
system.cpu.iq.FU_type_0::No_OpClass                 9      0.00%      0.00% # Type of FU issued
system.cpu.iq.FU_type_0::IntAlu              16694531     82.64%     82.64% # Type of FU issued
system.cpu.iq.FU_type_0::IntMult                   66      0.00%     82.64% # Type of FU issued
system.cpu.iq.FU_type_0::IntDiv                     0      0.00%     82.64% # Type of FU issued
system.cpu.iq.FU_type_0::FloatAdd                   0      0.00%     82.64% # Type of FU issued
system.cpu.iq.FU_type_0::FloatCmp                   0      0.00%     82.64% # Type of FU issued
system.cpu.iq.FU_type_0::FloatCvt                   0      0.00%     82.64% # Type of FU issued
system.cpu.iq.FU_type_0::FloatMult                  0      0.00%     82.64% # Type of FU issued
system.cpu.iq.FU_type_0::FloatMultAcc               0      0.00%     82.64% # Type of FU issued
system.cpu.iq.FU_type_0::FloatDiv                   0      0.00%     82.64% # Type of FU issued
system.cpu.iq.FU_type_0::FloatMisc                  0      0.00%     82.64% # Type of FU issued
system.cpu.iq.FU_type_0::FloatSqrt                  0      0.00%     82.64% # Type of FU issued
system.cpu.iq.FU_type_0::SimdAdd                    0      0.00%     82.64% # Type of FU issued
system.cpu.iq.FU_type_0::SimdAddAcc                 0      0.00%     82.64% # Type of FU issued
system.cpu.iq.FU_type_0::SimdAlu                    0      0.00%     82.64% # Type of FU issued
system.cpu.iq.FU_type_0::SimdCmp                    0      0.00%     82.64% # Type of FU issued
system.cpu.iq.FU_type_0::SimdCvt                    0      0.00%     82.64% # Type of FU issued
system.cpu.iq.FU_type_0::SimdMisc                   0      0.00%     82.64% # Type of FU issued
system.cpu.iq.FU_type_0::SimdMult                   0      0.00%     82.64% # Type of FU issued
system.cpu.iq.FU_type_0::SimdMultAcc                0      0.00%     82.64% # Type of FU issued
system.cpu.iq.FU_type_0::SimdShift                  0      0.00%     82.64% # Type of FU issued
system.cpu.iq.FU_type_0::SimdShiftAcc               0      0.00%     82.64% # Type of FU issued
system.cpu.iq.FU_type_0::SimdDiv                    0      0.00%     82.64% # Type of FU issued
system.cpu.iq.FU_type_0::SimdSqrt                   0      0.00%     82.64% # Type of FU issued
system.cpu.iq.FU_type_0::SimdFloatAdd               0      0.00%     82.64% # Type of FU issued
system.cpu.iq.FU_type_0::SimdFloatAlu               0      0.00%     82.64% # Type of FU issued
system.cpu.iq.FU_type_0::SimdFloatCmp               0      0.00%     82.64% # Type of FU issued
system.cpu.iq.FU_type_0::SimdFloatCvt               0      0.00%     82.64% # Type of FU issued
system.cpu.iq.FU_type_0::SimdFloatDiv               0      0.00%     82.64% # Type of FU issued
system.cpu.iq.FU_type_0::SimdFloatMisc              1      0.00%     82.64% # Type of FU issued
system.cpu.iq.FU_type_0::SimdFloatMult              0      0.00%     82.64% # Type of FU issued
system.cpu.iq.FU_type_0::SimdFloatMultAcc            0      0.00%     82.64% # Type of FU issued
system.cpu.iq.FU_type_0::SimdFloatSqrt              0      0.00%     82.64% # Type of FU issued
system.cpu.iq.FU_type_0::SimdReduceAdd              0      0.00%     82.64% # Type of FU issued
system.cpu.iq.FU_type_0::SimdReduceAlu              0      0.00%     82.64% # Type of FU issued
system.cpu.iq.FU_type_0::SimdReduceCmp              0      0.00%     82.64% # Type of FU issued
system.cpu.iq.FU_type_0::SimdFloatReduceAdd            0      0.00%     82.64% # Type of FU issued
system.cpu.iq.FU_type_0::SimdFloatReduceCmp            0      0.00%     82.64% # Type of FU issued
system.cpu.iq.FU_type_0::SimdAes                    0      0.00%     82.64% # Type of FU issued
system.cpu.iq.FU_type_0::SimdAesMix                 0      0.00%     82.64% # Type of FU issued
system.cpu.iq.FU_type_0::SimdSha1Hash               0      0.00%     82.64% # Type of FU issued
system.cpu.iq.FU_type_0::SimdSha1Hash2              0      0.00%     82.64% # Type of FU issued
system.cpu.iq.FU_type_0::SimdSha256Hash             0      0.00%     82.64% # Type of FU issued
system.cpu.iq.FU_type_0::SimdSha256Hash2            0      0.00%     82.64% # Type of FU issued
system.cpu.iq.FU_type_0::SimdShaSigma2              0      0.00%     82.64% # Type of FU issued
system.cpu.iq.FU_type_0::SimdShaSigma3              0      0.00%     82.64% # Type of FU issued
system.cpu.iq.FU_type_0::SimdPredAlu                0      0.00%     82.64% # Type of FU issued
system.cpu.iq.FU_type_0::MemRead              2804841     13.88%     96.52% # Type of FU issued
system.cpu.iq.FU_type_0::MemWrite              702768      3.48%    100.00% # Type of FU issued
system.cpu.iq.FU_type_0::FloatMemRead               0      0.00%    100.00% # Type of FU issued
system.cpu.iq.FU_type_0::FloatMemWrite              0      0.00%    100.00% # Type of FU issued
system.cpu.iq.FU_type_0::IprAccess                  0      0.00%    100.00% # Type of FU issued
system.cpu.iq.FU_type_0::InstPrefetch               0      0.00%    100.00% # Type of FU issued
system.cpu.iq.FU_type_0::total               20202216                       # Type of FU issued
system.cpu.iq.fp_alu_accesses                       0                       # Number of floating point alu accesses
system.cpu.iq.fp_inst_queue_reads                   0                       # Number of floating instruction queue reads
system.cpu.iq.fp_inst_queue_wakeup_accesses            0                       # Number of floating instruction queue wakeup accesses
system.cpu.iq.fp_inst_queue_writes                  0                       # Number of floating instruction queue writes
system.cpu.iq.fu_busy_cnt                       29606                       # FU busy when requested
system.cpu.iq.fu_busy_rate                   0.001465                       # FU busy rate (busy events/executed inst)
system.cpu.iq.fu_full::No_OpClass                   0      0.00%      0.00% # attempts to use FU when none available
system.cpu.iq.fu_full::IntAlu                   29274     98.88%     98.88% # attempts to use FU when none available
system.cpu.iq.fu_full::IntMult                      0      0.00%     98.88% # attempts to use FU when none available
system.cpu.iq.fu_full::IntDiv                       0      0.00%     98.88% # attempts to use FU when none available
system.cpu.iq.fu_full::FloatAdd                     0      0.00%     98.88% # attempts to use FU when none available
system.cpu.iq.fu_full::FloatCmp                     0      0.00%     98.88% # attempts to use FU when none available
system.cpu.iq.fu_full::FloatCvt                     0      0.00%     98.88% # attempts to use FU when none available
system.cpu.iq.fu_full::FloatMult                    0      0.00%     98.88% # attempts to use FU when none available
system.cpu.iq.fu_full::FloatMultAcc                 0      0.00%     98.88% # attempts to use FU when none available
system.cpu.iq.fu_full::FloatDiv                     0      0.00%     98.88% # attempts to use FU when none available
system.cpu.iq.fu_full::FloatMisc                    0      0.00%     98.88% # attempts to use FU when none available
system.cpu.iq.fu_full::FloatSqrt                    0      0.00%     98.88% # attempts to use FU when none available
system.cpu.iq.fu_full::SimdAdd                      0      0.00%     98.88% # attempts to use FU when none available
system.cpu.iq.fu_full::SimdAddAcc                   0      0.00%     98.88% # attempts to use FU when none available
system.cpu.iq.fu_full::SimdAlu                      0      0.00%     98.88% # attempts to use FU when none available
system.cpu.iq.fu_full::SimdCmp                      0      0.00%     98.88% # attempts to use FU when none available
system.cpu.iq.fu_full::SimdCvt                      0      0.00%     98.88% # attempts to use FU when none available
system.cpu.iq.fu_full::SimdMisc                     0      0.00%     98.88% # attempts to use FU when none available
system.cpu.iq.fu_full::SimdMult                     0      0.00%     98.88% # attempts to use FU when none available
system.cpu.iq.fu_full::SimdMultAcc                  0      0.00%     98.88% # attempts to use FU when none available
system.cpu.iq.fu_full::SimdShift                    0      0.00%     98.88% # attempts to use FU when none available
system.cpu.iq.fu_full::SimdShiftAcc                 0      0.00%     98.88% # attempts to use FU when none available
system.cpu.iq.fu_full::SimdDiv                      0      0.00%     98.88% # attempts to use FU when none available
system.cpu.iq.fu_full::SimdSqrt                     0      0.00%     98.88% # attempts to use FU when none available
system.cpu.iq.fu_full::SimdFloatAdd                 0      0.00%     98.88% # attempts to use FU when none available
system.cpu.iq.fu_full::SimdFloatAlu                 0      0.00%     98.88% # attempts to use FU when none available
system.cpu.iq.fu_full::SimdFloatCmp                 0      0.00%     98.88% # attempts to use FU when none available
system.cpu.iq.fu_full::SimdFloatCvt                 0      0.00%     98.88% # attempts to use FU when none available
system.cpu.iq.fu_full::SimdFloatDiv                 0      0.00%     98.88% # attempts to use FU when none available
system.cpu.iq.fu_full::SimdFloatMisc                0      0.00%     98.88% # attempts to use FU when none available
system.cpu.iq.fu_full::SimdFloatMult                0      0.00%     98.88% # attempts to use FU when none available
system.cpu.iq.fu_full::SimdFloatMultAcc             0      0.00%     98.88% # attempts to use FU when none available
system.cpu.iq.fu_full::SimdFloatSqrt                0      0.00%     98.88% # attempts to use FU when none available
system.cpu.iq.fu_full::SimdReduceAdd                0      0.00%     98.88% # attempts to use FU when none available
system.cpu.iq.fu_full::SimdReduceAlu                0      0.00%     98.88% # attempts to use FU when none available
system.cpu.iq.fu_full::SimdReduceCmp                0      0.00%     98.88% # attempts to use FU when none available
system.cpu.iq.fu_full::SimdFloatReduceAdd            0      0.00%     98.88% # attempts to use FU when none available
system.cpu.iq.fu_full::SimdFloatReduceCmp            0      0.00%     98.88% # attempts to use FU when none available
system.cpu.iq.fu_full::SimdAes                      0      0.00%     98.88% # attempts to use FU when none available
system.cpu.iq.fu_full::SimdAesMix                   0      0.00%     98.88% # attempts to use FU when none available
system.cpu.iq.fu_full::SimdSha1Hash                 0      0.00%     98.88% # attempts to use FU when none available
system.cpu.iq.fu_full::SimdSha1Hash2                0      0.00%     98.88% # attempts to use FU when none available
system.cpu.iq.fu_full::SimdSha256Hash               0      0.00%     98.88% # attempts to use FU when none available
system.cpu.iq.fu_full::SimdSha256Hash2              0      0.00%     98.88% # attempts to use FU when none available
system.cpu.iq.fu_full::SimdShaSigma2                0      0.00%     98.88% # attempts to use FU when none available
system.cpu.iq.fu_full::SimdShaSigma3                0      0.00%     98.88% # attempts to use FU when none available
system.cpu.iq.fu_full::SimdPredAlu                  0      0.00%     98.88% # attempts to use FU when none available
system.cpu.iq.fu_full::MemRead                    165      0.56%     99.44% # attempts to use FU when none available
system.cpu.iq.fu_full::MemWrite                   167      0.56%    100.00% # attempts to use FU when none available
system.cpu.iq.fu_full::FloatMemRead                 0      0.00%    100.00% # attempts to use FU when none available
system.cpu.iq.fu_full::FloatMemWrite                0      0.00%    100.00% # attempts to use FU when none available
system.cpu.iq.fu_full::IprAccess                    0      0.00%    100.00% # attempts to use FU when none available
system.cpu.iq.fu_full::InstPrefetch                 0      0.00%    100.00% # attempts to use FU when none available
system.cpu.iq.int_alu_accesses               20231813                       # Number of integer alu accesses
system.cpu.iq.int_inst_queue_reads           47871449                       # Number of integer instruction queue reads
system.cpu.iq.int_inst_queue_wakeup_accesses     20200840                       # Number of integer instruction queue wakeup accesses
system.cpu.iq.int_inst_queue_writes          20223987                       # Number of integer instruction queue writes
system.cpu.iq.iqInstsAdded                   20209332                       # Number of instructions added to the IQ (excludes non-spec)
system.cpu.iq.iqInstsIssued                  20202216                       # Number of instructions issued
system.cpu.iq.iqNonSpecInstsAdded                  59                       # Number of non-speculative instructions added to the IQ
system.cpu.iq.iqSquashedInstsExamined           14532                       # Number of squashed instructions iterated over during squash; mainly for profiling
system.cpu.iq.iqSquashedInstsIssued                30                       # Number of squashed instructions issued
system.cpu.iq.iqSquashedNonSpecRemoved             13                       # Number of squashed non-spec instructions that were removed
system.cpu.iq.iqSquashedOperandsExamined        38998                       # Number of squashed operands that are examined and possibly removed from graph
system.cpu.iq.issued_per_cycle::samples       7437381                       # Number of insts issued each cycle
system.cpu.iq.issued_per_cycle::mean         2.716308                       # Number of insts issued each cycle
system.cpu.iq.issued_per_cycle::stdev        1.683997                       # Number of insts issued each cycle
system.cpu.iq.issued_per_cycle::underflows            0      0.00%      0.00% # Number of insts issued each cycle
system.cpu.iq.issued_per_cycle::0              419781      5.64%      5.64% # Number of insts issued each cycle
system.cpu.iq.issued_per_cycle::1             1543692     20.76%     26.40% # Number of insts issued each cycle
system.cpu.iq.issued_per_cycle::2             1899723     25.54%     51.94% # Number of insts issued each cycle
system.cpu.iq.issued_per_cycle::3             1344857     18.08%     70.03% # Number of insts issued each cycle
system.cpu.iq.issued_per_cycle::4             1042299     14.01%     84.04% # Number of insts issued each cycle
system.cpu.iq.issued_per_cycle::5              656563      8.83%     92.87% # Number of insts issued each cycle
system.cpu.iq.issued_per_cycle::6              374105      5.03%     97.90% # Number of insts issued each cycle
system.cpu.iq.issued_per_cycle::7              123022      1.65%     99.55% # Number of insts issued each cycle
system.cpu.iq.issued_per_cycle::8               33339      0.45%    100.00% # Number of insts issued each cycle
system.cpu.iq.issued_per_cycle::overflows            0      0.00%    100.00% # Number of insts issued each cycle
system.cpu.iq.issued_per_cycle::min_value            0                       # Number of insts issued each cycle
system.cpu.iq.issued_per_cycle::max_value            8                       # Number of insts issued each cycle
system.cpu.iq.issued_per_cycle::total         7437381                       # Number of insts issued each cycle
system.cpu.iq.rate                           2.701430                       # Inst issue rate
system.cpu.iq.vec_alu_accesses                      0                       # Number of vector alu accesses
system.cpu.iq.vec_inst_queue_reads                  0                       # Number of vector instruction queue reads
system.cpu.iq.vec_inst_queue_wakeup_accesses            0                       # Number of vector instruction queue wakeup accesses
system.cpu.iq.vec_inst_queue_writes                 0                       # Number of vector instruction queue writes
system.cpu.istage2_mmu.stage2_tlb.accesses            0                       # DTB accesses
system.cpu.istage2_mmu.stage2_tlb.align_faults            0                       # Number of TLB faults due to alignment restrictions
system.cpu.istage2_mmu.stage2_tlb.domain_faults            0                       # Number of TLB faults due to domain restrictions
system.cpu.istage2_mmu.stage2_tlb.flush_entries            0                       # Number of entries that have been flushed from TLB
system.cpu.istage2_mmu.stage2_tlb.flush_tlb            0                       # Number of times complete TLB was flushed
system.cpu.istage2_mmu.stage2_tlb.flush_tlb_asid            0                       # Number of times TLB was flushed by ASID
system.cpu.istage2_mmu.stage2_tlb.flush_tlb_mva            0                       # Number of times TLB was flushed by MVA
system.cpu.istage2_mmu.stage2_tlb.flush_tlb_mva_asid            0                       # Number of times TLB was flushed by MVA & ASID
system.cpu.istage2_mmu.stage2_tlb.hits              0                       # DTB hits
system.cpu.istage2_mmu.stage2_tlb.inst_accesses            0                       # ITB inst accesses
system.cpu.istage2_mmu.stage2_tlb.inst_hits            0                       # ITB inst hits
system.cpu.istage2_mmu.stage2_tlb.inst_misses            0                       # ITB inst misses
system.cpu.istage2_mmu.stage2_tlb.misses            0                       # DTB misses
system.cpu.istage2_mmu.stage2_tlb.perms_faults            0                       # Number of TLB faults due to permissions restrictions
system.cpu.istage2_mmu.stage2_tlb.prefetch_faults            0                       # Number of TLB faults due to prefetch
system.cpu.istage2_mmu.stage2_tlb.read_accesses            0                       # DTB read accesses
system.cpu.istage2_mmu.stage2_tlb.read_hits            0                       # DTB read hits
system.cpu.istage2_mmu.stage2_tlb.read_misses            0                       # DTB read misses
system.cpu.istage2_mmu.stage2_tlb.walker.pwrStateResidencyTicks::UNDEFINED   3739170000                       # Cumulative time (in ticks) in various power states
system.cpu.istage2_mmu.stage2_tlb.walker.walkRequestOrigin_Requested::Data            0                       # Table walker requests started/completed, data/inst
system.cpu.istage2_mmu.stage2_tlb.walker.walkRequestOrigin_Requested::Inst            0                       # Table walker requests started/completed, data/inst
system.cpu.istage2_mmu.stage2_tlb.walker.walkRequestOrigin_Requested::total            0                       # Table walker requests started/completed, data/inst
system.cpu.istage2_mmu.stage2_tlb.walker.walkRequestOrigin_Completed::Data            0                       # Table walker requests started/completed, data/inst
system.cpu.istage2_mmu.stage2_tlb.walker.walkRequestOrigin_Completed::Inst            0                       # Table walker requests started/completed, data/inst
system.cpu.istage2_mmu.stage2_tlb.walker.walkRequestOrigin_Completed::total            0                       # Table walker requests started/completed, data/inst
system.cpu.istage2_mmu.stage2_tlb.walker.walkRequestOrigin::total            0                       # Table walker requests started/completed, data/inst
system.cpu.istage2_mmu.stage2_tlb.walker.walks            0                       # Table walker walks requested
system.cpu.istage2_mmu.stage2_tlb.write_accesses            0                       # DTB write accesses
system.cpu.istage2_mmu.stage2_tlb.write_hits            0                       # DTB write hits
system.cpu.istage2_mmu.stage2_tlb.write_misses            0                       # DTB write misses
system.cpu.itb.accesses                             0                       # DTB accesses
system.cpu.itb.align_faults                         0                       # Number of TLB faults due to alignment restrictions
system.cpu.itb.domain_faults                        0                       # Number of TLB faults due to domain restrictions
system.cpu.itb.flush_entries                        0                       # Number of entries that have been flushed from TLB
system.cpu.itb.flush_tlb                            0                       # Number of times complete TLB was flushed
system.cpu.itb.flush_tlb_asid                       0                       # Number of times TLB was flushed by ASID
system.cpu.itb.flush_tlb_mva                        0                       # Number of times TLB was flushed by MVA
system.cpu.itb.flush_tlb_mva_asid                   0                       # Number of times TLB was flushed by MVA & ASID
system.cpu.itb.hits                                 0                       # DTB hits
system.cpu.itb.inst_accesses                        0                       # ITB inst accesses
system.cpu.itb.inst_hits                            0                       # ITB inst hits
system.cpu.itb.inst_misses                          0                       # ITB inst misses
system.cpu.itb.misses                               0                       # DTB misses
system.cpu.itb.perms_faults                         0                       # Number of TLB faults due to permissions restrictions
system.cpu.itb.prefetch_faults                      0                       # Number of TLB faults due to prefetch
system.cpu.itb.read_accesses                        0                       # DTB read accesses
system.cpu.itb.read_hits                            0                       # DTB read hits
system.cpu.itb.read_misses                          0                       # DTB read misses
system.cpu.itb.walker.pwrStateResidencyTicks::UNDEFINED   3739170000                       # Cumulative time (in ticks) in various power states
system.cpu.itb.walker.walkRequestOrigin_Requested::Data            0                       # Table walker requests started/completed, data/inst
system.cpu.itb.walker.walkRequestOrigin_Requested::Inst            0                       # Table walker requests started/completed, data/inst
system.cpu.itb.walker.walkRequestOrigin_Requested::total            0                       # Table walker requests started/completed, data/inst
system.cpu.itb.walker.walkRequestOrigin_Completed::Data            0                       # Table walker requests started/completed, data/inst
[...]
system.mem_ctrls.wrQLenPdf::19                      0                       # What write queue length does an incoming req see
system.mem_ctrls.wrQLenPdf::20                      0                       # What write queue length does an incoming req see
system.mem_ctrls.wrQLenPdf::21                      0                       # What write queue length does an incoming req see
system.mem_ctrls.wrQLenPdf::22                      0                       # What write queue length does an incoming req see
system.mem_ctrls.wrQLenPdf::23                      0                       # What write queue length does an incoming req see
system.mem_ctrls.wrQLenPdf::24                      0                       # What write queue length does an incoming req see
system.mem_ctrls.wrQLenPdf::25                      0                       # What write queue length does an incoming req see
system.mem_ctrls.wrQLenPdf::26                      0                       # What write queue length does an incoming req see
system.mem_ctrls.wrQLenPdf::27                      0                       # What write queue length does an incoming req see
system.mem_ctrls.wrQLenPdf::28                      0                       # What write queue length does an incoming req see
system.mem_ctrls.wrQLenPdf::29                      0                       # What write queue length does an incoming req see
system.mem_ctrls.wrQLenPdf::30                      0                       # What write queue length does an incoming req see
system.mem_ctrls.wrQLenPdf::31                      0                       # What write queue length does an incoming req see
system.mem_ctrls.wrQLenPdf::32                      0                       # What write queue length does an incoming req see
system.mem_ctrls.wrQLenPdf::33                      0                       # What write queue length does an incoming req see
system.mem_ctrls.wrQLenPdf::34                      0                       # What write queue length does an incoming req see
system.mem_ctrls.wrQLenPdf::35                      0                       # What write queue length does an incoming req see
system.mem_ctrls.wrQLenPdf::36                      0                       # What write queue length does an incoming req see
system.mem_ctrls.wrQLenPdf::37                      0                       # What write queue length does an incoming req see
system.mem_ctrls.wrQLenPdf::38                      0                       # What write queue length does an incoming req see
system.mem_ctrls.wrQLenPdf::39                      0                       # What write queue length does an incoming req see
system.mem_ctrls.wrQLenPdf::40                      0                       # What write queue length does an incoming req see
system.mem_ctrls.wrQLenPdf::41                      0                       # What write queue length does an incoming req see
system.mem_ctrls.wrQLenPdf::42                      0                       # What write queue length does an incoming req see
system.mem_ctrls.wrQLenPdf::43                      0                       # What write queue length does an incoming req see
system.mem_ctrls.wrQLenPdf::44                      0                       # What write queue length does an incoming req see
system.mem_ctrls.wrQLenPdf::45                      0                       # What write queue length does an incoming req see
system.mem_ctrls.wrQLenPdf::46                      0                       # What write queue length does an incoming req see
system.mem_ctrls.wrQLenPdf::47                      0                       # What write queue length does an incoming req see
system.mem_ctrls.wrQLenPdf::48                      0                       # What write queue length does an incoming req see
system.mem_ctrls.wrQLenPdf::49                      0                       # What write queue length does an incoming req see
system.mem_ctrls.wrQLenPdf::50                      0                       # What write queue length does an incoming req see
system.mem_ctrls.wrQLenPdf::51                      0                       # What write queue length does an incoming req see
system.mem_ctrls.wrQLenPdf::52                      0                       # What write queue length does an incoming req see
system.mem_ctrls.wrQLenPdf::53                      0                       # What write queue length does an incoming req see
system.mem_ctrls.wrQLenPdf::54                      0                       # What write queue length does an incoming req see
system.mem_ctrls.wrQLenPdf::55                      0                       # What write queue length does an incoming req see
system.mem_ctrls.wrQLenPdf::56                      0                       # What write queue length does an incoming req see
system.mem_ctrls.wrQLenPdf::57                      0                       # What write queue length does an incoming req see
system.mem_ctrls.wrQLenPdf::58                      0                       # What write queue length does an incoming req see
system.mem_ctrls.wrQLenPdf::59                      0                       # What write queue length does an incoming req see
system.mem_ctrls.wrQLenPdf::60                      0                       # What write queue length does an incoming req see
system.mem_ctrls.wrQLenPdf::61                      0                       # What write queue length does an incoming req see
system.mem_ctrls.wrQLenPdf::62                      0                       # What write queue length does an incoming req see
system.mem_ctrls.wrQLenPdf::63                      0                       # What write queue length does an incoming req see
system.mem_ctrls.writeBursts                        0                       # Number of DRAM write bursts, including those merged in the write queue
system.mem_ctrls.writePktSize::0                    0                       # Write request sizes (log2)
system.mem_ctrls.writePktSize::1                    0                       # Write request sizes (log2)
system.mem_ctrls.writePktSize::2                    0                       # Write request sizes (log2)
system.mem_ctrls.writePktSize::3                    0                       # Write request sizes (log2)
system.mem_ctrls.writePktSize::4                    0                       # Write request sizes (log2)
system.mem_ctrls.writePktSize::5                    0                       # Write request sizes (log2)
system.mem_ctrls.writePktSize::6                    0                       # Write request sizes (log2)
system.mem_ctrls.writeReqs                          0                       # Number of write requests accepted
system.mem_ctrls.writeRowHitRate                  nan                       # Row buffer hit rate for writes
system.mem_ctrls.writeRowHits                       0                       # Number of row buffer hits during writes
system.mem_ctrls_0.actBackEnergy            319767150                       # Energy for active background per rank (pJ)
system.mem_ctrls_0.actEnergy                 10295880                       # Energy for activate commands per rank (pJ)
system.mem_ctrls_0.actPowerDownEnergy               0                       # Energy for active power-down per rank (pJ)
system.mem_ctrls_0.averagePower            493.205297                       # Core power per rank (mW)
system.mem_ctrls_0.memoryStateTime::IDLE   3023450500                       # Time in different power states
system.mem_ctrls_0.memoryStateTime::REF     124800000                       # Time in different power states
system.mem_ctrls_0.memoryStateTime::SREF            0                       # Time in different power states
system.mem_ctrls_0.memoryStateTime::PRE_PDN            0                       # Time in different power states
system.mem_ctrls_0.memoryStateTime::ACT     590919500                       # Time in different power states
system.mem_ctrls_0.memoryStateTime::ACT_PDN            0                       # Time in different power states
system.mem_ctrls_0.preBackEnergy           1166563680                       # Energy for precharge background per rank (pJ)
system.mem_ctrls_0.preEnergy                  5464800                       # Energy for precharge commands per rank (pJ)
system.mem_ctrls_0.prePowerDownEnergy               0                       # Energy for precharge power-down per rank (pJ)
system.mem_ctrls_0.readEnergy                47059740                       # Energy for read commands per rank (pJ)
system.mem_ctrls_0.refreshEnergy         295027200.000000                       # Energy for refresh commands per rank (pJ)
system.mem_ctrls_0.selfRefreshEnergy                0                       # Energy for self refresh per rank (pJ)
system.mem_ctrls_0.totalEnergy             1844178450                       # Total energy per rank (pJ)
system.mem_ctrls_0.totalIdleTime                    0                       # Total Idle time Per DRAM Rank
system.mem_ctrls_0.writeEnergy                      0                       # Energy for write commands per rank (pJ)
system.mem_ctrls_1.actBackEnergy            323185440                       # Energy for active background per rank (pJ)
system.mem_ctrls_1.actEnergy                 10410120                       # Energy for activate commands per rank (pJ)
system.mem_ctrls_1.actPowerDownEnergy               0                       # Energy for active power-down per rank (pJ)
system.mem_ctrls_1.averagePower            493.411709                       # Core power per rank (mW)
system.mem_ctrls_1.memoryStateTime::IDLE   3015915250                       # Time in different power states
system.mem_ctrls_1.memoryStateTime::REF     124800000                       # Time in different power states
system.mem_ctrls_1.memoryStateTime::SREF            0                       # Time in different power states
system.mem_ctrls_1.memoryStateTime::PRE_PDN            0                       # Time in different power states
system.mem_ctrls_1.memoryStateTime::ACT     598454750                       # Time in different power states
system.mem_ctrls_1.memoryStateTime::ACT_PDN            0                       # Time in different power states
system.mem_ctrls_1.preBackEnergy           1163685120                       # Energy for precharge background per rank (pJ)
system.mem_ctrls_1.preEnergy                  5525520                       # Energy for precharge commands per rank (pJ)
system.mem_ctrls_1.prePowerDownEnergy               0                       # Energy for precharge power-down per rank (pJ)
system.mem_ctrls_1.readEnergy                47116860                       # Energy for read commands per rank (pJ)
system.mem_ctrls_1.refreshEnergy         295027200.000000                       # Energy for refresh commands per rank (pJ)
system.mem_ctrls_1.selfRefreshEnergy                0                       # Energy for self refresh per rank (pJ)
system.mem_ctrls_1.totalEnergy             1844950260                       # Total energy per rank (pJ)
system.mem_ctrls_1.totalIdleTime                    0                       # Total Idle time Per DRAM Rank
system.mem_ctrls_1.writeEnergy                      0                       # Energy for write commands per rank (pJ)
system.membus.pkt_count_system.l2.mem_side::system.mem_ctrls.port        26380                       # Packet count per connected master and slave (bytes)
system.membus.pkt_count::total                  26380                       # Packet count per connected master and slave (bytes)
system.membus.pkt_size_system.l2.mem_side::system.mem_ctrls.port       844160                       # Cumulative packet size per connected master and slave (bytes)
system.membus.pkt_size::total                  844160                       # Cumulative packet size per connected master and slave (bytes)
system.membus.pwrStateResidencyTicks::UNDEFINED   3739170000                       # Cumulative time (in ticks) in various power states
system.membus.reqLayer0.occupancy            16492500                       # Layer occupancy (ticks)
system.membus.reqLayer0.utilization               0.4                       # Layer utilization (%)
system.membus.respLayer1.occupancy           70200000                       # Layer occupancy (ticks)
system.membus.respLayer1.utilization              1.9                       # Layer utilization (%)
system.membus.snoopTraffic                          0                       # Total snoop traffic (bytes)
system.membus.snoop_fanout::samples             13190                       # Request fanout histogram
system.membus.snoop_fanout::mean                    0                       # Request fanout histogram
system.membus.snoop_fanout::stdev                   0                       # Request fanout histogram
system.membus.snoop_fanout::underflows              0      0.00%      0.00% # Request fanout histogram
system.membus.snoop_fanout::0                   13190    100.00%    100.00% # Request fanout histogram
system.membus.snoop_fanout::1                       0      0.00%    100.00% # Request fanout histogram
system.membus.snoop_fanout::overflows               0      0.00%    100.00% # Request fanout histogram
system.membus.snoop_fanout::min_value               0                       # Request fanout histogram
system.membus.snoop_fanout::max_value               0                       # Request fanout histogram
system.membus.snoop_fanout::total               13190                       # Request fanout histogram
system.membus.snoop_filter.hit_multi_requests            0                       # Number of requests hitting in the snoop filter with multiple (>1) holders of the requested data.
system.membus.snoop_filter.hit_multi_snoops            0                       # Number of snoops hitting in the snoop filter with multiple (>1) holders of the requested data.
system.membus.snoop_filter.hit_single_requests            0                       # Number of requests hitting in the snoop filter with a single holder of the requested data.
system.membus.snoop_filter.hit_single_snoops            0                       # Number of snoops hitting in the snoop filter with a single holder of the requested data.
system.membus.snoop_filter.tot_requests         13190                       # Total number of requests made to the snoop filter.
system.membus.snoop_filter.tot_snoops               0                       # Total number of snoops made to the snoop filter.
system.membus.snoops                                0                       # Total snoops (count)
system.membus.trans_dist::ReadResp                637                       # Transaction distribution
system.membus.trans_dist::ReadExReq             12553                       # Transaction distribution
system.membus.trans_dist::ReadExResp            12553                       # Transaction distribution
system.membus.trans_dist::ReadSharedReq           637                       # Transaction distribution
system.tol2bus.pkt_count_system.cpu.icache.mem_side::system.l2.cpu_side         1303                       # Packet count per connected master and slave (bytes)
system.tol2bus.pkt_count_system.cpu.dcache.mem_side::system.l2.cpu_side        93455                       # Packet count per connected master and slave (bytes)
system.tol2bus.pkt_count::total                 94758                       # Packet count per connected master and slave (bytes)
system.tol2bus.pkt_size_system.cpu.icache.mem_side::system.l2.cpu_side        46976                       # Cumulative packet size per connected master and slave (bytes)
system.tol2bus.pkt_size_system.cpu.dcache.mem_side::system.l2.cpu_side      3960512                       # Cumulative packet size per connected master and slave (bytes)
system.tol2bus.pkt_size::total                4007488                       # Cumulative packet size per connected master and slave (bytes)
system.tol2bus.pwrStateResidencyTicks::UNDEFINED   3739170000                       # Cumulative time (in ticks) in various power states
system.tol2bus.reqLayer0.occupancy           61903000                       # Layer occupancy (ticks)
system.tol2bus.reqLayer0.utilization              1.7                       # Layer utilization (%)
system.tol2bus.respLayer0.occupancy            853999                       # Layer occupancy (ticks)
system.tol2bus.respLayer0.utilization             0.0                       # Layer utilization (%)
system.tol2bus.respLayer1.occupancy          47243492                       # Layer occupancy (ticks)
system.tol2bus.respLayer1.utilization             1.3                       # Layer utilization (%)
system.tol2bus.snoopTraffic                         0                       # Total snoop traffic (bytes)
system.tol2bus.snoop_fanout::samples            32062                       # Request fanout histogram
system.tol2bus.snoop_fanout::mean            0.001591                       # Request fanout histogram
system.tol2bus.snoop_fanout::stdev           0.039852                       # Request fanout histogram
system.tol2bus.snoop_fanout::underflows             0      0.00%      0.00% # Request fanout histogram
system.tol2bus.snoop_fanout::0                  32011     99.84%     99.84% # Request fanout histogram
system.tol2bus.snoop_fanout::1                     51      0.16%    100.00% # Request fanout histogram
system.tol2bus.snoop_fanout::2                      0      0.00%    100.00% # Request fanout histogram
system.tol2bus.snoop_fanout::overflows              0      0.00%    100.00% # Request fanout histogram
system.tol2bus.snoop_fanout::min_value              0                       # Request fanout histogram
system.tol2bus.snoop_fanout::max_value              1                       # Request fanout histogram
system.tol2bus.snoop_fanout::total              32062                       # Request fanout histogram
system.tol2bus.snoop_filter.hit_multi_requests           33                       # Number of requests hitting in the snoop filter with multiple (>1) holders of the requested data.
system.tol2bus.snoop_filter.hit_multi_snoops            0                       # Number of snoops hitting in the snoop filter with multiple (>1) holders of the requested data.
system.tol2bus.snoop_filter.hit_single_requests        30652                       # Number of requests hitting in the snoop filter with a single holder of the requested data.
system.tol2bus.snoop_filter.hit_single_snoops            0                       # Number of snoops hitting in the snoop filter with a single holder of the requested data.
system.tol2bus.snoop_filter.tot_requests        62696                       # Total number of requests made to the snoop filter.
system.tol2bus.snoop_filter.tot_snoops              0                       # Total number of snoops made to the snoop filter.
system.tol2bus.snoops                               0                       # Total snoops (count)
system.tol2bus.trans_dist::ReadResp             19493                       # Transaction distribution
system.tol2bus.trans_dist::WritebackDirty        30390                       # Transaction distribution
system.tol2bus.trans_dist::WritebackClean          165                       # Transaction distribution
system.tol2bus.trans_dist::CleanEvict              79                       # Transaction distribution
system.tol2bus.trans_dist::ReadExReq            12569                       # Transaction distribution
system.tol2bus.trans_dist::ReadExResp           12569                       # Transaction distribution
system.tol2bus.trans_dist::ReadCleanReq           569                       # Transaction distribution
system.tol2bus.trans_dist::ReadSharedReq        18924                       # Transaction distribution
system.voltage_domain.voltage                       1                       # Voltage in Volts

---------- End Simulation Statistics   ----------
