
---------- Begin Simulation Statistics ----------
final_tick                                10484038000                       # Number of ticks from beginning of simulation (restored from checkpoints and never reset)
host_inst_rate                                 104341                       # Simulator instruction rate (inst/s)
host_mem_usage                                 839892                       # Number of bytes of host memory used
host_op_rate                                   104352                       # Simulator op (including micro ops) rate (op/s)
host_seconds                                   193.53                       # Real time elapsed on the host
host_tick_rate                               54173730                       # Simulator tick rate (ticks/s)
sim_freq                                 1000000000000                       # Frequency of simulated ticks
sim_insts                                    20192793                       # Number of instructions simulated
sim_ops                                      20194858                       # Number of ops (including micro ops) simulated
sim_seconds                                  0.010484                       # Number of seconds simulated
sim_ticks                                 10484038000                       # Number of ticks simulated
system.clk_domain.clock                          1000                       # Clock period in ticks
system.cpu.branchPred.BTBCorrect                    0                       # Number of correct BTB predictions (this stat may not work properly.
system.cpu.branchPred.BTBHitPct             78.207024                       # BTB Hit Percentage
system.cpu.branchPred.BTBHits                 1445283                       # Number of BTB hits
system.cpu.branchPred.BTBLookups              1848022                       # Number of BTB lookups
system.cpu.branchPred.RASInCorrect                 91                       # Number of incorrect RAS predictions.
system.cpu.branchPred.condIncorrect               852                       # Number of conditional branches incorrect
system.cpu.branchPred.condPredicted           2260335                       # Number of conditional branches predicted
system.cpu.branchPred.indirectHits                 34                       # Number of indirect target hits.
system.cpu.branchPred.indirectLookups             253                       # Number of indirect predictor lookups.
system.cpu.branchPred.indirectMisses              219                       # Number of indirect misses.
system.cpu.branchPred.lookups                 3362281                       # Number of BP lookups
system.cpu.branchPred.usedRAS                  500740                       # Number of times the RAS was used to get a target.
system.cpu.branchPredindirectMispredicted           91                       # Number of mispredicted indirect branches.
system.cpu.cc_regfile_reads                  68994949                       # number of cc regfile reads
system.cpu.cc_regfile_writes                 11987791                       # number of cc regfile writes
system.cpu.commit.amos                              0                       # Number of atomic instructions committed
system.cpu.commit.branchMispredicts               611                       # The number of times a branch was mispredicted
system.cpu.commit.branches                    3358697                       # Number of branches committed
system.cpu.commit.bw_lim_events                    11                       # number cycles where commit BW limit reached
system.cpu.commit.commitNonSpecStalls              46                       # The number of times commit has been forced to stall to communicate backwards
system.cpu.commit.commitSquashedInsts            1682                       # The number of squashed insts skipped by commit
system.cpu.commit.committedInsts             20192793                       # Number of instructions committed
system.cpu.commit.committedOps               20194858                       # Number of ops (including micro ops) committed
system.cpu.commit.committed_per_cycle::samples     20924115                       # Number of insts commited each cycle
system.cpu.commit.committed_per_cycle::mean     0.965148                       # Number of insts commited each cycle
system.cpu.commit.committed_per_cycle::stdev     0.736679                       # Number of insts commited each cycle
system.cpu.commit.committed_per_cycle::underflows            0      0.00%      0.00% # Number of insts commited each cycle
system.cpu.commit.committed_per_cycle::0      5513676     26.35%     26.35% # Number of insts commited each cycle
system.cpu.commit.committed_per_cycle::1     11160559     53.34%     79.69% # Number of insts commited each cycle
system.cpu.commit.committed_per_cycle::2      3721971     17.79%     97.48% # Number of insts commited each cycle
system.cpu.commit.committed_per_cycle::3       521396      2.49%     99.97% # Number of insts commited each cycle
system.cpu.commit.committed_per_cycle::4         6453      0.03%    100.00% # Number of insts commited each cycle
system.cpu.commit.committed_per_cycle::5           30      0.00%    100.00% # Number of insts commited each cycle
system.cpu.commit.committed_per_cycle::6           14      0.00%    100.00% # Number of insts commited each cycle
system.cpu.commit.committed_per_cycle::7            5      0.00%    100.00% # Number of insts commited each cycle
system.cpu.commit.committed_per_cycle::8           11      0.00%    100.00% # Number of insts commited each cycle
system.cpu.commit.committed_per_cycle::overflows            0      0.00%    100.00% # Number of insts commited each cycle
system.cpu.commit.committed_per_cycle::min_value            0                       # Number of insts commited each cycle
system.cpu.commit.committed_per_cycle::max_value            8                       # Number of insts commited each cycle
system.cpu.commit.committed_per_cycle::total     20924115                       # Number of insts commited each cycle
system.cpu.commit.fp_insts                          0                       # Number of committed floating point instructions.
system.cpu.commit.function_calls               500260                       # Number of function calls committed.
system.cpu.commit.int_insts                  18236846                       # Number of committed integer instructions.
system.cpu.commit.loads                       2802484                       # Number of loads committed
system.cpu.commit.membars                          18                       # Number of memory barriers committed
system.cpu.commit.op_class_0::No_OpClass            0      0.00%      0.00% # Class of committed instruction
system.cpu.commit.op_class_0::IntAlu         16690152     82.65%     82.65% # Class of committed instruction
system.cpu.commit.op_class_0::IntMult              60      0.00%     82.65% # Class of committed instruction
system.cpu.commit.op_class_0::IntDiv                0      0.00%     82.65% # Class of committed instruction
system.cpu.commit.op_class_0::FloatAdd              0      0.00%     82.65% # Class of committed instruction
system.cpu.commit.op_class_0::FloatCmp              0      0.00%     82.65% # Class of committed instruction
system.cpu.commit.op_class_0::FloatCvt              0      0.00%     82.65% # Class of committed instruction
system.cpu.commit.op_class_0::FloatMult             0      0.00%     82.65% # Class of committed instruction
system.cpu.commit.op_class_0::FloatMultAcc            0      0.00%     82.65% # Class of committed instruction
system.cpu.commit.op_class_0::FloatDiv              0      0.00%     82.65% # Class of committed instruction
system.cpu.commit.op_class_0::FloatMisc             0      0.00%     82.65% # Class of committed instruction
system.cpu.commit.op_class_0::FloatSqrt             0      0.00%     82.65% # Class of committed instruction
system.cpu.commit.op_class_0::SimdAdd               0      0.00%     82.65% # Class of committed instruction
system.cpu.commit.op_class_0::SimdAddAcc            0      0.00%     82.65% # Class of committed instruction
system.cpu.commit.op_class_0::SimdAlu               0      0.00%     82.65% # Class of committed instruction
system.cpu.commit.op_class_0::SimdCmp               0      0.00%     82.65% # Class of committed instruction
system.cpu.commit.op_class_0::SimdCvt               0      0.00%     82.65% # Class of committed instruction
system.cpu.commit.op_class_0::SimdMisc              0      0.00%     82.65% # Class of committed instruction
system.cpu.commit.op_class_0::SimdMult              0      0.00%     82.65% # Class of committed instruction
system.cpu.commit.op_class_0::SimdMultAcc            0      0.00%     82.65% # Class of committed instruction
system.cpu.commit.op_class_0::SimdShift             0      0.00%     82.65% # Class of committed instruction
system.cpu.commit.op_class_0::SimdShiftAcc            0      0.00%     82.65% # Class of committed instruction
system.cpu.commit.op_class_0::SimdDiv               0      0.00%     82.65% # Class of committed instruction
system.cpu.commit.op_class_0::SimdSqrt              0      0.00%     82.65% # Class of committed instruction
system.cpu.commit.op_class_0::SimdFloatAdd            0      0.00%     82.65% # Class of committed instruction
system.cpu.commit.op_class_0::SimdFloatAlu            0      0.00%     82.65% # Class of committed instruction
system.cpu.commit.op_class_0::SimdFloatCmp            0      0.00%     82.65% # Class of committed instruction
system.cpu.commit.op_class_0::SimdFloatCvt            0      0.00%     82.65% # Class of committed instruction
system.cpu.commit.op_class_0::SimdFloatDiv            0      0.00%     82.65% # Class of committed instruction
system.cpu.commit.op_class_0::SimdFloatMisc            1      0.00%     82.65% # Class of committed instruction
system.cpu.commit.op_class_0::SimdFloatMult            0      0.00%     82.65% # Class of committed instruction
system.cpu.commit.op_class_0::SimdFloatMultAcc            0      0.00%     82.65% # Class of committed instruction
system.cpu.commit.op_class_0::SimdFloatSqrt            0      0.00%     82.65% # Class of committed instruction
system.cpu.commit.op_class_0::SimdReduceAdd            0      0.00%     82.65% # Class of committed instruction
system.cpu.commit.op_class_0::SimdReduceAlu            0      0.00%     82.65% # Class of committed instruction
system.cpu.commit.op_class_0::SimdReduceCmp            0      0.00%     82.65% # Class of committed instruction
system.cpu.commit.op_class_0::SimdFloatReduceAdd            0      0.00%     82.65% # Class of committed instruction
system.cpu.commit.op_class_0::SimdFloatReduceCmp            0      0.00%     82.65% # Class of committed instruction
system.cpu.commit.op_class_0::SimdAes               0      0.00%     82.65% # Class of committed instruction
system.cpu.commit.op_class_0::SimdAesMix            0      0.00%     82.65% # Class of committed instruction
system.cpu.commit.op_class_0::SimdSha1Hash            0      0.00%     82.65% # Class of committed instruction
system.cpu.commit.op_class_0::SimdSha1Hash2            0      0.00%     82.65% # Class of committed instruction
system.cpu.commit.op_class_0::SimdSha256Hash            0      0.00%     82.65% # Class of committed instruction
system.cpu.commit.op_class_0::SimdSha256Hash2            0      0.00%     82.65% # Class of committed instruction
system.cpu.commit.op_class_0::SimdShaSigma2            0      0.00%     82.65% # Class of committed instruction
system.cpu.commit.op_class_0::SimdShaSigma3            0      0.00%     82.65% # Class of committed instruction
system.cpu.commit.op_class_0::SimdPredAlu            0      0.00%     82.65% # Class of committed instruction
system.cpu.commit.op_class_0::MemRead         2802484     13.88%     96.52% # Class of committed instruction
system.cpu.commit.op_class_0::MemWrite         702161      3.48%    100.00% # Class of committed instruction
system.cpu.commit.op_class_0::FloatMemRead            0      0.00%    100.00% # Class of committed instruction
system.cpu.commit.op_class_0::FloatMemWrite            0      0.00%    100.00% # Class of committed instruction
system.cpu.commit.op_class_0::IprAccess             0      0.00%    100.00% # Class of committed instruction
system.cpu.commit.op_class_0::InstPrefetch            0      0.00%    100.00% # Class of committed instruction
system.cpu.commit.op_class_0::total          20194858                       # Class of committed instruction
system.cpu.commit.refs                        3504645                       # Number of memory references committed
system.cpu.commit.swp_count                         0                       # Number of s/w prefetches committed
system.cpu.commit.vec_insts                         0                       # Number of committed Vector instructions.
system.cpu.committedInsts                    20192793                       # Number of Instructions Simulated
system.cpu.committedOps                      20194858                       # Number of Ops (including micro ops) Simulated
system.cpu.cpi                               1.038394                       # CPI: Cycles Per Instruction
system.cpu.cpi_total                         1.038394                       # CPI: Total CPI of All Threads
system.cpu.dcache.LoadLockedReq_accesses::.cpu.data           18                       # number of LoadLockedReq accesses(hits+misses)
system.cpu.dcache.LoadLockedReq_accesses::total           18                       # number of LoadLockedReq accesses(hits+misses)
system.cpu.dcache.LoadLockedReq_hits::.cpu.data           18                       # number of LoadLockedReq hits
system.cpu.dcache.LoadLockedReq_hits::total           18                       # number of LoadLockedReq hits
system.cpu.dcache.ReadReq_accesses::.cpu.data      2502578                       # number of ReadReq accesses(hits+misses)
system.cpu.dcache.ReadReq_accesses::total      2502578                       # number of ReadReq accesses(hits+misses)
system.cpu.dcache.ReadReq_avg_miss_latency::.cpu.data 13557.441873                       # average ReadReq miss latency
system.cpu.dcache.ReadReq_avg_miss_latency::total 13557.441873                       # average ReadReq miss latency
system.cpu.dcache.ReadReq_avg_mshr_miss_latency::.cpu.data 12433.934331                       # average ReadReq mshr miss latency
system.cpu.dcache.ReadReq_avg_mshr_miss_latency::total 12433.934331                       # average ReadReq mshr miss latency
system.cpu.dcache.ReadReq_hits::.cpu.data      2483611                       # number of ReadReq hits
system.cpu.dcache.ReadReq_hits::total         2483611                       # number of ReadReq hits
system.cpu.dcache.ReadReq_miss_latency::.cpu.data    257144000                       # number of ReadReq miss cycles
system.cpu.dcache.ReadReq_miss_latency::total    257144000                       # number of ReadReq miss cycles
system.cpu.dcache.ReadReq_miss_rate::.cpu.data     0.007579                       # miss rate for ReadReq accesses
system.cpu.dcache.ReadReq_miss_rate::total     0.007579                       # miss rate for ReadReq accesses
system.cpu.dcache.ReadReq_misses::.cpu.data        18967                       # number of ReadReq misses
system.cpu.dcache.ReadReq_misses::total         18967                       # number of ReadReq misses
system.cpu.dcache.ReadReq_mshr_hits::.cpu.data           54                       # number of ReadReq MSHR hits
system.cpu.dcache.ReadReq_mshr_hits::total           54                       # number of ReadReq MSHR hits
system.cpu.dcache.ReadReq_mshr_miss_latency::.cpu.data    235163000                       # number of ReadReq MSHR miss cycles
system.cpu.dcache.ReadReq_mshr_miss_latency::total    235163000                       # number of ReadReq MSHR miss cycles
system.cpu.dcache.ReadReq_mshr_miss_rate::.cpu.data     0.007557                       # mshr miss rate for ReadReq accesses
system.cpu.dcache.ReadReq_mshr_miss_rate::total     0.007557                       # mshr miss rate for ReadReq accesses
system.cpu.dcache.ReadReq_mshr_misses::.cpu.data        18913                       # number of ReadReq MSHR misses
system.cpu.dcache.ReadReq_mshr_misses::total        18913                       # number of ReadReq MSHR misses
system.cpu.dcache.StoreCondReq_accesses::.cpu.data           17                       # number of StoreCondReq accesses(hits+misses)
system.cpu.dcache.StoreCondReq_accesses::total           17                       # number of StoreCondReq accesses(hits+misses)
system.cpu.dcache.StoreCondReq_hits::.cpu.data           17                       # number of StoreCondReq hits
system.cpu.dcache.StoreCondReq_hits::total           17                       # number of StoreCondReq hits
system.cpu.dcache.WriteReq_accesses::.cpu.data       702061                       # number of WriteReq accesses(hits+misses)
system.cpu.dcache.WriteReq_accesses::total       702061                       # number of WriteReq accesses(hits+misses)
system.cpu.dcache.WriteReq_avg_miss_latency::.cpu.data 54343.204762                       # average WriteReq miss latency
system.cpu.dcache.WriteReq_avg_miss_latency::total 54343.204762                       # average WriteReq miss latency
system.cpu.dcache.WriteReq_avg_mshr_miss_latency::.cpu.data 81709.029356                       # average WriteReq mshr miss latency
system.cpu.dcache.WriteReq_avg_mshr_miss_latency::total 81709.029356                       # average WriteReq mshr miss latency
system.cpu.dcache.WriteReq_hits::.cpu.data       660105                       # number of WriteReq hits
system.cpu.dcache.WriteReq_hits::total         660105                       # number of WriteReq hits
system.cpu.dcache.WriteReq_miss_latency::.cpu.data   2280023499                       # number of WriteReq miss cycles
system.cpu.dcache.WriteReq_miss_latency::total   2280023499                       # number of WriteReq miss cycles
system.cpu.dcache.WriteReq_miss_rate::.cpu.data     0.059761                       # miss rate for WriteReq accesses
system.cpu.dcache.WriteReq_miss_rate::total     0.059761                       # miss rate for WriteReq accesses
system.cpu.dcache.WriteReq_misses::.cpu.data        41956                       # number of WriteReq misses
system.cpu.dcache.WriteReq_misses::total        41956                       # number of WriteReq misses
system.cpu.dcache.WriteReq_mshr_hits::.cpu.data        29386                       # number of WriteReq MSHR hits
system.cpu.dcache.WriteReq_mshr_hits::total        29386                       # number of WriteReq MSHR hits
system.cpu.dcache.WriteReq_mshr_miss_latency::.cpu.data   1027082499                       # number of WriteReq MSHR miss cycles
system.cpu.dcache.WriteReq_mshr_miss_latency::total   1027082499                       # number of WriteReq MSHR miss cycles
system.cpu.dcache.WriteReq_mshr_miss_rate::.cpu.data     0.017904                       # mshr miss rate for WriteReq accesses
system.cpu.dcache.WriteReq_mshr_miss_rate::total     0.017904                       # mshr miss rate for WriteReq accesses
system.cpu.dcache.WriteReq_mshr_misses::.cpu.data        12570                       # number of WriteReq MSHR misses
system.cpu.dcache.WriteReq_mshr_misses::total        12570                       # number of WriteReq MSHR misses
system.cpu.dcache.avg_blocked_cycles::no_mshrs    40.750000                       # average number of cycles each access was blocked
system.cpu.dcache.avg_blocked_cycles::no_targets          nan                       # average number of cycles each access was blocked
system.cpu.dcache.blocked::no_mshrs                 4                       # number of cycles access was blocked
system.cpu.dcache.blocked::no_targets               0                       # number of cycles access was blocked
system.cpu.dcache.blocked_cycles::no_mshrs          163                       # number of cycles access was blocked
system.cpu.dcache.blocked_cycles::no_targets            0                       # number of cycles access was blocked
system.cpu.dcache.demand_accesses::.cpu.data      3204639                       # number of demand (read+write) accesses
system.cpu.dcache.demand_accesses::total      3204639                       # number of demand (read+write) accesses
system.cpu.dcache.demand_avg_miss_latency::.cpu.data 41645.478703                       # average overall miss latency
system.cpu.dcache.demand_avg_miss_latency::total 41645.478703                       # average overall miss latency
system.cpu.dcache.demand_avg_mshr_miss_latency::.cpu.data 40092.923133                       # average overall mshr miss latency
system.cpu.dcache.demand_avg_mshr_miss_latency::total 40092.923133                       # average overall mshr miss latency
system.cpu.dcache.demand_hits::.cpu.data      3143716                       # number of demand (read+write) hits
system.cpu.dcache.demand_hits::total          3143716                       # number of demand (read+write) hits
system.cpu.dcache.demand_miss_latency::.cpu.data   2537167499                       # number of demand (read+write) miss cycles
system.cpu.dcache.demand_miss_latency::total   2537167499                       # number of demand (read+write) miss cycles
system.cpu.dcache.demand_miss_rate::.cpu.data     0.019011                       # miss rate for demand accesses
system.cpu.dcache.demand_miss_rate::total     0.019011                       # miss rate for demand accesses
system.cpu.dcache.demand_misses::.cpu.data        60923                       # number of demand (read+write) misses
system.cpu.dcache.demand_misses::total          60923                       # number of demand (read+write) misses
system.cpu.dcache.demand_mshr_hits::.cpu.data        29440                       # number of demand (read+write) MSHR hits
system.cpu.dcache.demand_mshr_hits::total        29440                       # number of demand (read+write) MSHR hits
system.cpu.dcache.demand_mshr_miss_latency::.cpu.data   1262245499                       # number of demand (read+write) MSHR miss cycles
system.cpu.dcache.demand_mshr_miss_latency::total   1262245499                       # number of demand (read+write) MSHR miss cycles
system.cpu.dcache.demand_mshr_miss_rate::.cpu.data     0.009824                       # mshr miss rate for demand accesses
system.cpu.dcache.demand_mshr_miss_rate::total     0.009824                       # mshr miss rate for demand accesses
system.cpu.dcache.demand_mshr_misses::.cpu.data        31483                       # number of demand (read+write) MSHR misses
system.cpu.dcache.demand_mshr_misses::total        31483                       # number of demand (read+write) MSHR misses
system.cpu.dcache.overall_accesses::.cpu.data      3204639                       # number of overall (read+write) accesses
system.cpu.dcache.overall_accesses::total      3204639                       # number of overall (read+write) accesses
system.cpu.dcache.overall_avg_miss_latency::.cpu.data 41645.478703                       # average overall miss latency
system.cpu.dcache.overall_avg_miss_latency::total 41645.478703                       # average overall miss latency
system.cpu.dcache.overall_avg_mshr_miss_latency::.cpu.data 40092.923133                       # average overall mshr miss latency
system.cpu.dcache.overall_avg_mshr_miss_latency::total 40092.923133                       # average overall mshr miss latency
system.cpu.dcache.overall_hits::.cpu.data      3143716                       # number of overall hits
system.cpu.dcache.overall_hits::total         3143716                       # number of overall hits
system.cpu.dcache.overall_miss_latency::.cpu.data   2537167499                       # number of overall miss cycles
system.cpu.dcache.overall_miss_latency::total   2537167499                       # number of overall miss cycles
system.cpu.dcache.overall_miss_rate::.cpu.data     0.019011                       # miss rate for overall accesses
system.cpu.dcache.overall_miss_rate::total     0.019011                       # miss rate for overall accesses
system.cpu.dcache.overall_misses::.cpu.data        60923                       # number of overall misses
system.cpu.dcache.overall_misses::total         60923                       # number of overall misses
system.cpu.dcache.overall_mshr_hits::.cpu.data        29440                       # number of overall MSHR hits
system.cpu.dcache.overall_mshr_hits::total        29440                       # number of overall MSHR hits
system.cpu.dcache.overall_mshr_miss_latency::.cpu.data   1262245499                       # number of overall MSHR miss cycles
system.cpu.dcache.overall_mshr_miss_latency::total   1262245499                       # number of overall MSHR miss cycles
system.cpu.dcache.overall_mshr_miss_rate::.cpu.data     0.009824                       # mshr miss rate for overall accesses
system.cpu.dcache.overall_mshr_miss_rate::total     0.009824                       # mshr miss rate for overall accesses
system.cpu.dcache.overall_mshr_misses::.cpu.data        31483                       # number of overall MSHR misses
system.cpu.dcache.overall_mshr_misses::total        31483                       # number of overall MSHR misses
system.cpu.dcache.pwrStateResidencyTicks::UNDEFINED  10484038000                       # Cumulative time (in ticks) in various power states
system.cpu.dcache.replacements                  30459                       # number of replacements
system.cpu.dcache.tags.age_task_id_blocks_1024::0           42                       # Occupied blocks per task id
system.cpu.dcache.tags.age_task_id_blocks_1024::1          209                       # Occupied blocks per task id
system.cpu.dcache.tags.age_task_id_blocks_1024::2          771                       # Occupied blocks per task id
system.cpu.dcache.tags.age_task_id_blocks_1024::4            2                       # Occupied blocks per task id
system.cpu.dcache.tags.avg_refs            100.855509                       # Average number of references to valid blocks.
system.cpu.dcache.tags.data_accesses          6440831                       # Number of data accesses
system.cpu.dcache.tags.occ_blocks::.cpu.data  1012.837152                       # Average occupied blocks per requestor
system.cpu.dcache.tags.occ_percent::.cpu.data     0.989099                       # Average percentage of cache occupancy
system.cpu.dcache.tags.occ_percent::total     0.989099                       # Average percentage of cache occupancy
system.cpu.dcache.tags.occ_task_id_blocks::1024         1024                       # Occupied blocks per task id
system.cpu.dcache.tags.occ_task_id_percent::1024            1                       # Percentage of cache occupancy per task id
system.cpu.dcache.tags.pwrStateResidencyTicks::UNDEFINED  10484038000                       # Cumulative time (in ticks) in various power states
system.cpu.dcache.tags.sampled_refs             31483                       # Sample count of references to valid blocks.
system.cpu.dcache.tags.tag_accesses           6440831                       # Number of tag accesses
system.cpu.dcache.tags.tagsinuse          1012.837152                       # Cycle average of tags in use
system.cpu.dcache.tags.total_refs             3175234                       # Total number of references to valid blocks.
system.cpu.dcache.tags.warmup_cycle            108500                       # Cycle when the warmup percentage was hit.
system.cpu.dcache.writebacks::.writebacks        30384                       # number of writebacks
system.cpu.dcache.writebacks::total             30384                       # number of writebacks
system.cpu.decode.BlockedCycles              17480448                       # Number of cycles decode is blocked
system.cpu.decode.BranchMispred                   248                       # Number of times decode detected a branch misprediction
system.cpu.decode.BranchResolved              1444766                       # Number of times decode resolved a branch
system.cpu.decode.DecodedInsts               20200221                       # Number of instructions handled by decode
system.cpu.decode.IdleCycles                   917835                       # Number of cycles decode is idle
system.cpu.decode.RunCycles                      1655                       # Number of cycles decode is running
system.cpu.decode.SquashCycles                    631                       # Number of cycles decode is squashing
system.cpu.decode.SquashedInsts                   681                       # Number of squashed instructions handled by decode
system.cpu.decode.UnblockCycles               2524189                       # Number of cycles decode is unblocking
system.cpu.dstage2_mmu.stage2_tlb.accesses            0                       # DTB accesses
system.cpu.dstage2_mmu.stage2_tlb.align_faults            0                       # Number of TLB faults due to alignment restrictions
system.cpu.dstage2_mmu.stage2_tlb.domain_faults            0                       # Number of TLB faults due to domain restrictions
system.cpu.dstage2_mmu.stage2_tlb.flush_entries            0                       # Number of entries that have been flushed from TLB
system.cpu.dstage2_mmu.stage2_tlb.flush_tlb            0                       # Number of times complete TLB was flushed
system.cpu.dstage2_mmu.stage2_tlb.flush_tlb_asid            0                       # Number of times TLB was flushed by ASID
system.cpu.dstage2_mmu.stage2_tlb.flush_tlb_mva            0                       # Number of times TLB was flushed by MVA
system.cpu.dstage2_mmu.stage2_tlb.flush_tlb_mva_asid            0                       # Number of times TLB was flushed by MVA & ASID
system.cpu.dstage2_mmu.stage2_tlb.hits              0                       # DTB hits
system.cpu.dstage2_mmu.stage2_tlb.inst_accesses            0                       # ITB inst accesses
system.cpu.dstage2_mmu.stage2_tlb.inst_hits            0                       # ITB inst hits
system.cpu.dstage2_mmu.stage2_tlb.inst_misses            0                       # ITB inst misses
system.cpu.dstage2_mmu.stage2_tlb.misses            0                       # DTB misses
system.cpu.dstage2_mmu.stage2_tlb.perms_faults            0                       # Number of TLB faults due to permissions restrictions
system.cpu.dstage2_mmu.stage2_tlb.prefetch_faults            0                       # Number of TLB faults due to prefetch
system.cpu.dstage2_mmu.stage2_tlb.read_accesses            0                       # DTB read accesses
system.cpu.dstage2_mmu.stage2_tlb.read_hits            0                       # DTB read hits
system.cpu.dstage2_mmu.stage2_tlb.read_misses            0                       # DTB read misses
system.cpu.dstage2_mmu.stage2_tlb.walker.pwrStateResidencyTicks::UNDEFINED  10484038000                       # Cumulative time (in ticks) in various power states
system.cpu.dstage2_mmu.stage2_tlb.walker.walkRequestOrigin_Requested::Data            0                       # Table walker requests started/completed, data/inst
system.cpu.dstage2_mmu.stage2_tlb.walker.walkRequestOrigin_Requested::Inst            0                       # Table walker requests started/completed, data/inst
system.cpu.dstage2_mmu.stage2_tlb.walker.walkRequestOrigin_Requested::total            0                       # Table walker requests started/completed, data/inst
system.cpu.dstage2_mmu.stage2_tlb.walker.walkRequestOrigin_Completed::Data            0                       # Table walker requests started/completed, data/inst
system.cpu.dstage2_mmu.stage2_tlb.walker.walkRequestOrigin_Completed::Inst            0                       # Table walker requests started/completed, data/inst
system.cpu.dstage2_mmu.stage2_tlb.walker.walkRequestOrigin_Completed::total            0                       # Table walker requests started/completed, data/inst
system.cpu.dstage2_mmu.stage2_tlb.walker.walkRequestOrigin::total            0                       # Table walker requests started/completed, data/inst
system.cpu.dstage2_mmu.stage2_tlb.walker.walks            0                       # Table walker walks requested
system.cpu.dstage2_mmu.stage2_tlb.write_accesses            0                       # DTB write accesses
system.cpu.dstage2_mmu.stage2_tlb.write_hits            0                       # DTB write hits
system.cpu.dstage2_mmu.stage2_tlb.write_misses            0                       # DTB write misses
system.cpu.dtb.accesses                             0                       # DTB accesses
system.cpu.dtb.align_faults                         0                       # Number of TLB faults due to alignment restrictions
system.cpu.dtb.domain_faults                        0                       # Number of TLB faults due to domain restrictions
system.cpu.dtb.flush_entries                        0                       # Number of entries that have been flushed from TLB
system.cpu.dtb.flush_tlb                            0                       # Number of times complete TLB was flushed
system.cpu.dtb.flush_tlb_asid                       0                       # Number of times TLB was flushed by ASID
system.cpu.dtb.flush_tlb_mva                        0                       # Number of times TLB was flushed by MVA
system.cpu.dtb.flush_tlb_mva_asid                   0                       # Number of times TLB was flushed by MVA & ASID
system.cpu.dtb.hits                                 0                       # DTB hits
system.cpu.dtb.inst_accesses                        0                       # ITB inst accesses
system.cpu.dtb.inst_hits                            0                       # ITB inst hits
system.cpu.dtb.inst_misses                          0                       # ITB inst misses
system.cpu.dtb.misses                               0                       # DTB misses
system.cpu.dtb.perms_faults                         0                       # Number of TLB faults due to permissions restrictions
system.cpu.dtb.prefetch_faults                      0                       # Number of TLB faults due to prefetch
system.cpu.dtb.read_accesses                        0                       # DTB read accesses
system.cpu.dtb.read_hits                            0                       # DTB read hits
system.cpu.dtb.read_misses                          0                       # DTB read misses
system.cpu.dtb.walker.pwrStateResidencyTicks::UNDEFINED  10484038000                       # Cumulative time (in ticks) in various power states
system.cpu.dtb.walker.walkRequestOrigin_Requested::Data            0                       # Table walker requests started/completed, data/inst
system.cpu.dtb.walker.walkRequestOrigin_Requested::Inst            0                       # Table walker requests started/completed, data/inst
system.cpu.dtb.walker.walkRequestOrigin_Requested::total            0                       # Table walker requests started/completed, data/inst
system.cpu.dtb.walker.walkRequestOrigin_Completed::Data            0                       # Table walker requests started/completed, data/inst
system.cpu.dtb.walker.walkRequestOrigin_Completed::Inst            0                       # Table walker requests started/completed, data/inst
system.cpu.dtb.walker.walkRequestOrigin_Completed::total            0                       # Table walker requests started/completed, data/inst
system.cpu.dtb.walker.walkRequestOrigin::total            0                       # Table walker requests started/completed, data/inst
system.cpu.dtb.walker.walks                         0                       # Table walker walks requested
system.cpu.dtb.write_accesses                       0                       # DTB write accesses
system.cpu.dtb.write_hits                           0                       # DTB write hits
system.cpu.dtb.write_misses                         0                       # DTB write misses
system.cpu.fetch.Branches                     3362281                       # Number of branches that fetch encountered
system.cpu.fetch.CacheLines                   3004997                       # Number of cache lines fetched
system.cpu.fetch.Cycles                      17906495                       # Number of cycles fetch has run and was not squashing or blocked
system.cpu.fetch.IcacheSquashes                   493                       # Number of outstanding Icache misses that were squashed
system.cpu.fetch.IcacheWaitRetryStallCycles           26                       # Number of stall cycles due to full MSHR
system.cpu.fetch.Insts                       20212800                       # Number of instructions fetch has processed
system.cpu.fetch.MiscStallCycles                    3                       # Number of cycles fetch has spent waiting on interrupts, or bad addresses, or out of MSHRs
system.cpu.fetch.PendingTrapStallCycles           502                       # Number of stall cycles due to pending traps
system.cpu.fetch.SquashCycles                    1744                       # Number of cycles fetch has spent squashing
system.cpu.fetch.branchRate                  0.160352                       # Number of branch fetches per cycle
system.cpu.fetch.icacheStallCycles            3016860                       # Number of cycles fetch is stalled on an Icache miss
system.cpu.fetch.predictedBranches            1946057                       # Number of branches that fetch has predicted taken
system.cpu.fetch.rate                        0.963980                       # Number of inst fetches per cycle
system.cpu.fetch.rateDist::samples           20924758                       # Number of instructions fetched each cycle (Total)
system.cpu.fetch.rateDist::mean              0.966177                       # Number of instructions fetched each cycle (Total)
system.cpu.fetch.rateDist::stdev             2.056511                       # Number of instructions fetched each cycle (Total)
system.cpu.fetch.rateDist::underflows               0      0.00%      0.00% # Number of instructions fetched each cycle (Total)
system.cpu.fetch.rateDist::0                 15929288     76.13%     76.13% # Number of instructions fetched each cycle (Total)
system.cpu.fetch.rateDist::1                   825307      3.94%     80.07% # Number of instructions fetched each cycle (Total)
system.cpu.fetch.rateDist::2                   761497      3.64%     83.71% # Number of instructions fetched each cycle (Total)
system.cpu.fetch.rateDist::3                   765104      3.66%     87.37% # Number of instructions fetched each cycle (Total)
system.cpu.fetch.rateDist::4                   578241      2.76%     90.13% # Number of instructions fetched each cycle (Total)
system.cpu.fetch.rateDist::5                   561130      2.68%     92.81% # Number of instructions fetched each cycle (Total)
system.cpu.fetch.rateDist::6                   702201      3.36%     96.17% # Number of instructions fetched each cycle (Total)
system.cpu.fetch.rateDist::7                   174328      0.83%     97.00% # Number of instructions fetched each cycle (Total)
system.cpu.fetch.rateDist::8                   627662      3.00%    100.00% # Number of instructions fetched each cycle (Total)
system.cpu.fetch.rateDist::overflows                0      0.00%    100.00% # Number of instructions fetched each cycle (Total)
system.cpu.fetch.rateDist::min_value                0                       # Number of instructions fetched each cycle (Total)
system.cpu.fetch.rateDist::max_value                8                       # Number of instructions fetched each cycle (Total)
system.cpu.fetch.rateDist::total             20924758                       # Number of instructions fetched each cycle (Total)
system.cpu.icache.ReadReq_accesses::.cpu.inst      3004997                       # number of ReadReq accesses(hits+misses)
system.cpu.icache.ReadReq_accesses::total      3004997                       # number of ReadReq accesses(hits+misses)
system.cpu.icache.ReadReq_avg_miss_latency::.cpu.inst 68506.914246                       # average ReadReq miss latency
system.cpu.icache.ReadReq_avg_miss_latency::total 68506.914246                       # average ReadReq miss latency
system.cpu.icache.ReadReq_avg_mshr_miss_latency::.cpu.inst 71605.215652                       # average ReadReq mshr miss latency
system.cpu.icache.ReadReq_avg_mshr_miss_latency::total 71605.215652                       # average ReadReq mshr miss latency
system.cpu.icache.ReadReq_hits::.cpu.inst      3004274                       # number of ReadReq hits
system.cpu.icache.ReadReq_hits::total         3004274                       # number of ReadReq hits
system.cpu.icache.ReadReq_miss_latency::.cpu.inst     49530499                       # number of ReadReq miss cycles
system.cpu.icache.ReadReq_miss_latency::total     49530499                       # number of ReadReq miss cycles
system.cpu.icache.ReadReq_miss_rate::.cpu.inst     0.000241                       # miss rate for ReadReq accesses
system.cpu.icache.ReadReq_miss_rate::total     0.000241                       # miss rate for ReadReq accesses
system.cpu.icache.ReadReq_misses::.cpu.inst          723                       # number of ReadReq misses
system.cpu.icache.ReadReq_misses::total           723                       # number of ReadReq misses
system.cpu.icache.ReadReq_mshr_hits::.cpu.inst          148                       # number of ReadReq MSHR hits
system.cpu.icache.ReadReq_mshr_hits::total          148                       # number of ReadReq MSHR hits
system.cpu.icache.ReadReq_mshr_miss_latency::.cpu.inst     41172999                       # number of ReadReq MSHR miss cycles
system.cpu.icache.ReadReq_mshr_miss_latency::total     41172999                       # number of ReadReq MSHR miss cycles
system.cpu.icache.ReadReq_mshr_miss_rate::.cpu.inst     0.000191                       # mshr miss rate for ReadReq accesses
system.cpu.icache.ReadReq_mshr_miss_rate::total     0.000191                       # mshr miss rate for ReadReq accesses
system.cpu.icache.ReadReq_mshr_misses::.cpu.inst          575                       # number of ReadReq MSHR misses
system.cpu.icache.ReadReq_mshr_misses::total          575                       # number of ReadReq MSHR misses
system.cpu.icache.avg_blocked_cycles::no_mshrs    34.250000                       # average number of cycles each access was blocked
system.cpu.icache.avg_blocked_cycles::no_targets          nan                       # average number of cycles each access was blocked
system.cpu.icache.blocked::no_mshrs                12                       # number of cycles access was blocked
system.cpu.icache.blocked::no_targets               0                       # number of cycles access was blocked
system.cpu.icache.blocked_cycles::no_mshrs          411                       # number of cycles access was blocked
system.cpu.icache.blocked_cycles::no_targets            0                       # number of cycles access was blocked
system.cpu.icache.demand_accesses::.cpu.inst      3004997                       # number of demand (read+write) accesses
system.cpu.icache.demand_accesses::total      3004997                       # number of demand (read+write) accesses
system.cpu.icache.demand_avg_miss_latency::.cpu.inst 68506.914246                       # average overall miss latency
system.cpu.icache.demand_avg_miss_latency::total 68506.914246                       # average overall miss latency
system.cpu.icache.demand_avg_mshr_miss_latency::.cpu.inst 71605.215652                       # average overall mshr miss latency
system.cpu.icache.demand_avg_mshr_miss_latency::total 71605.215652                       # average overall mshr miss latency
system.cpu.icache.demand_hits::.cpu.inst      3004274                       # number of demand (read+write) hits
system.cpu.icache.demand_hits::total          3004274                       # number of demand (read+write) hits
system.cpu.icache.demand_miss_latency::.cpu.inst     49530499                       # number of demand (read+write) miss cycles
system.cpu.icache.demand_miss_latency::total     49530499                       # number of demand (read+write) miss cycles
system.cpu.icache.demand_miss_rate::.cpu.inst     0.000241                       # miss rate for demand accesses
system.cpu.icache.demand_miss_rate::total     0.000241                       # miss rate for demand accesses
system.cpu.icache.demand_misses::.cpu.inst          723                       # number of demand (read+write) misses
system.cpu.icache.demand_misses::total            723                       # number of demand (read+write) misses
system.cpu.icache.demand_mshr_hits::.cpu.inst          148                       # number of demand (read+write) MSHR hits
system.cpu.icache.demand_mshr_hits::total          148                       # number of demand (read+write) MSHR hits
system.cpu.icache.demand_mshr_miss_latency::.cpu.inst     41172999                       # number of demand (read+write) MSHR miss cycles
system.cpu.icache.demand_mshr_miss_latency::total     41172999                       # number of demand (read+write) MSHR miss cycles
system.cpu.icache.demand_mshr_miss_rate::.cpu.inst     0.000191                       # mshr miss rate for demand accesses
system.cpu.icache.demand_mshr_miss_rate::total     0.000191                       # mshr miss rate for demand accesses
system.cpu.icache.demand_mshr_misses::.cpu.inst          575                       # number of demand (read+write) MSHR misses
system.cpu.icache.demand_mshr_misses::total          575                       # number of demand (read+write) MSHR misses
system.cpu.icache.overall_accesses::.cpu.inst      3004997                       # number of overall (read+write) accesses
system.cpu.icache.overall_accesses::total      3004997                       # number of overall (read+write) accesses
system.cpu.icache.overall_avg_miss_latency::.cpu.inst 68506.914246                       # average overall miss latency
system.cpu.icache.overall_avg_miss_latency::total 68506.914246                       # average overall miss latency
system.cpu.icache.overall_avg_mshr_miss_latency::.cpu.inst 71605.215652                       # average overall mshr miss latency
system.cpu.icache.overall_avg_mshr_miss_latency::total 71605.215652                       # average overall mshr miss latency
system.cpu.icache.overall_hits::.cpu.inst      3004274                       # number of overall hits
system.cpu.icache.overall_hits::total         3004274                       # number of overall hits
system.cpu.icache.overall_miss_latency::.cpu.inst     49530499                       # number of overall miss cycles
system.cpu.icache.overall_miss_latency::total     49530499                       # number of overall miss cycles
system.cpu.icache.overall_miss_rate::.cpu.inst     0.000241                       # miss rate for overall accesses
system.cpu.icache.overall_miss_rate::total     0.000241                       # miss rate for overall accesses
system.cpu.icache.overall_misses::.cpu.inst          723                       # number of overall misses
system.cpu.icache.overall_misses::total           723                       # number of overall misses
system.cpu.icache.overall_mshr_hits::.cpu.inst          148                       # number of overall MSHR hits
system.cpu.icache.overall_mshr_hits::total          148                       # number of overall MSHR hits
system.cpu.icache.overall_mshr_miss_latency::.cpu.inst     41172999                       # number of overall MSHR miss cycles
system.cpu.icache.overall_mshr_miss_latency::total     41172999                       # number of overall MSHR miss cycles
system.cpu.icache.overall_mshr_miss_rate::.cpu.inst     0.000191                       # mshr miss rate for overall accesses
system.cpu.icache.overall_mshr_miss_rate::total     0.000191                       # mshr miss rate for overall accesses
system.cpu.icache.overall_mshr_misses::.cpu.inst          575                       # number of overall MSHR misses
system.cpu.icache.overall_mshr_misses::total          575                       # number of overall MSHR misses
system.cpu.icache.pwrStateResidencyTicks::UNDEFINED  10484038000                       # Cumulative time (in ticks) in various power states
system.cpu.icache.replacements                    166                       # number of replacements
system.cpu.icache.tags.age_task_id_blocks_1024::0          151                       # Occupied blocks per task id
system.cpu.icache.tags.age_task_id_blocks_1024::1           93                       # Occupied blocks per task id
system.cpu.icache.tags.age_task_id_blocks_1024::3           14                       # Occupied blocks per task id
system.cpu.icache.tags.age_task_id_blocks_1024::4          149                       # Occupied blocks per task id
system.cpu.icache.tags.avg_refs           5244.061082                       # Average number of references to valid blocks.
system.cpu.icache.tags.data_accesses          6010567                       # Number of data accesses
system.cpu.icache.tags.occ_blocks::.cpu.inst   263.312638                       # Average occupied blocks per requestor
system.cpu.icache.tags.occ_percent::.cpu.inst     0.514282                       # Average percentage of cache occupancy
system.cpu.icache.tags.occ_percent::total     0.514282                       # Average percentage of cache occupancy
system.cpu.icache.tags.occ_task_id_blocks::1024          407                       # Occupied blocks per task id
system.cpu.icache.tags.occ_task_id_percent::1024     0.794922                       # Percentage of cache occupancy per task id
system.cpu.icache.tags.pwrStateResidencyTicks::UNDEFINED  10484038000                       # Cumulative time (in ticks) in various power states
system.cpu.icache.tags.sampled_refs               573                       # Sample count of references to valid blocks.
system.cpu.icache.tags.tag_accesses           6010567                       # Number of tag accesses
system.cpu.icache.tags.tagsinuse           263.312638                       # Cycle average of tags in use
system.cpu.icache.tags.total_refs             3004847                       # Total number of references to valid blocks.
system.cpu.icache.tags.warmup_cycle             87500                       # Cycle when the warmup percentage was hit.
system.cpu.icache.writebacks::.writebacks          166                       # number of writebacks
system.cpu.icache.writebacks::total               166                       # number of writebacks
system.cpu.idleCycles                           43319                       # Total number of cycles that the CPU has spent unscheduled due to idling
system.cpu.iew.branchMispredicts                  623                       # Number of branch mispredicts detected at execute
system.cpu.iew.exec_branches                  3358823                       # Number of branches executed
system.cpu.iew.exec_nop                             0                       # number of nop insts executed
system.cpu.iew.exec_rate                     0.963170                       # Inst execution rate
system.cpu.iew.exec_refs                      3504959                       # number of memory reference insts executed
system.cpu.iew.exec_stores                     702220                       # Number of stores executed
system.cpu.iew.exec_swp                             0                       # number of swp insts executed
system.cpu.iew.iewBlockCycles                  724222                       # Number of cycles IEW is blocking
system.cpu.iew.iewDispLoadInsts               2802880                       # Number of dispatched load instructions
system.cpu.iew.iewDispNonSpecInsts                 28                       # Number of dispatched non-speculative instructions
system.cpu.iew.iewDispSquashedInsts               326                       # Number of squashed instructions skipped by dispatch
system.cpu.iew.iewDispStoreInsts               702257                       # Number of dispatched store instructions
system.cpu.iew.iewDispatchedInsts            20196534                       # Number of instructions dispatched to IQ
system.cpu.iew.iewExecLoadInsts               2802739                       # Number of load instructions executed
system.cpu.iew.iewExecSquashedInsts               469                       # Number of squashed instructions skipped in execute
system.cpu.iew.iewExecutedInsts              20195820                       # Number of executed instructions
system.cpu.iew.iewIQFullEvents                 105775                       # Number of times the IQ has become full, causing a stall
system.cpu.iew.iewIdleCycles                        0                       # Number of cycles IEW is idle
system.cpu.iew.iewLSQFullEvents                     0                       # Number of times the LSQ has become full, causing a stall
system.cpu.iew.iewSquashCycles                    631                       # Number of cycles IEW is squashing
system.cpu.iew.iewUnblockCycles                124662                       # Number of cycles IEW is unblocking
system.cpu.iew.lsq.thread0.blockedLoads             0                       # Number of blocked loads due to partial load-store forwarding
system.cpu.iew.lsq.thread0.cacheBlocked             2                       # Number of times an access to memory failed due to the cache being blocked
system.cpu.iew.lsq.thread0.forwLoads           300020                       # Number of loads that had data forwarded from stores
system.cpu.iew.lsq.thread0.ignoredResponses            1                       # Number of memory responses ignored because the instruction is squashed
system.cpu.iew.lsq.thread0.invAddrLoads             0                       # Number of loads ignored due to an invalid address
system.cpu.iew.lsq.thread0.invAddrSwpfs             0                       # Number of software prefetches ignored due to an invalid address
system.cpu.iew.lsq.thread0.memOrderViolation            7                       # Number of memory ordering violations
system.cpu.iew.lsq.thread0.rescheduledLoads            1                       # Number of loads that were rescheduled
system.cpu.iew.lsq.thread0.squashedLoads          396                       # Number of loads squashed
system.cpu.iew.lsq.thread0.squashedStores           96                       # Number of stores squashed
system.cpu.iew.memOrderViolationEvents              7                       # Number of memory order violations
system.cpu.iew.predictedNotTakenIncorrect          431                       # Number of branches that were predicted not taken incorrectly
system.cpu.iew.predictedTakenIncorrect            192                       # Number of branches that were predicted taken incorrectly
system.cpu.iew.wb_consumers                  17754144                       # num instructions consuming a value
system.cpu.iew.wb_count                      20195642                       # cumulative count of insts written-back
system.cpu.iew.wb_fanout                     0.579262                       # average fanout of values written-back
system.cpu.iew.wb_producers                  10284297                       # num instructions producing a value
system.cpu.iew.wb_rate                       0.963161                       # insts written-back per cycle
system.cpu.iew.wb_sent                       20195670                       # cumulative count of insts sent to commit
system.cpu.int_regfile_reads                 25138981                       # number of integer regfile reads
system.cpu.int_regfile_writes                14177175                       # number of integer regfile writes
system.cpu.ipc                               0.963026                       # IPC: Instructions Per Cycle
system.cpu.ipc_total                         0.963026                       # IPC: Total IPC of All Threads
system.cpu.iq.FU_type_0::No_OpClass                 8      0.00%      0.00% # Type of FU issued
system.cpu.iq.FU_type_0::IntAlu              16691131     82.64%     82.64% # Type of FU issued
system.cpu.iq.FU_type_0::IntMult                   60      0.00%     82.64% # Type of FU issued
system.cpu.iq.FU_type_0::IntDiv                     0      0.00%     82.64% # Type of FU issued
system.cpu.iq.FU_type_0::FloatAdd                   0      0.00%     82.64% # Type of FU issued
system.cpu.iq.FU_type_0::FloatCmp                   0      0.00%     82.64% # Type of FU issued
system.cpu.iq.FU_type_0::FloatCvt                   0      0.00%     82.64% # Type of FU issued
system.cpu.iq.FU_type_0::FloatMult                  0      0.00%     82.64% # Type of FU issued
system.cpu.iq.FU_type_0::FloatMultAcc               0      0.00%     82.64% # Type of FU issued
system.cpu.iq.FU_type_0::FloatDiv                   0      0.00%     82.64% # Type of FU issued
system.cpu.iq.FU_type_0::FloatMisc                  0      0.00%     82.64% # Type of FU issued
system.cpu.iq.FU_type_0::FloatSqrt                  0      0.00%     82.64% # Type of FU issued
system.cpu.iq.FU_type_0::SimdAdd                    0      0.00%     82.64% # Type of FU issued
system.cpu.iq.FU_type_0::SimdAddAcc                 0      0.00%     82.64% # Type of FU issued
system.cpu.iq.FU_type_0::SimdAlu                    0      0.00%     82.64% # Type of FU issued
system.cpu.iq.FU_type_0::SimdCmp                    0      0.00%     82.64% # Type of FU issued
system.cpu.iq.FU_type_0::SimdCvt                    0      0.00%     82.64% # Type of FU issued
system.cpu.iq.FU_type_0::SimdMisc                   0      0.00%     82.64% # Type of FU issued
system.cpu.iq.FU_type_0::SimdMult                   0      0.00%     82.64% # Type of FU issued
system.cpu.iq.FU_type_0::SimdMultAcc                0      0.00%     82.64% # Type of FU issued
system.cpu.iq.FU_type_0::SimdShift                  0      0.00%     82.64% # Type of FU issued
system.cpu.iq.FU_type_0::SimdShiftAcc               0      0.00%     82.64% # Type of FU issued
system.cpu.iq.FU_type_0::SimdDiv                    0      0.00%     82.64% # Type of FU issued
system.cpu.iq.FU_type_0::SimdSqrt                   0      0.00%     82.64% # Type of FU issued
system.cpu.iq.FU_type_0::SimdFloatAdd               0      0.00%     82.64% # Type of FU issued
system.cpu.iq.FU_type_0::SimdFloatAlu               0      0.00%     82.64% # Type of FU issued
system.cpu.iq.FU_type_0::SimdFloatCmp               0      0.00%     82.64% # Type of FU issued
system.cpu.iq.FU_type_0::SimdFloatCvt               0      0.00%     82.64% # Type of FU issued
system.cpu.iq.FU_type_0::SimdFloatDiv               0      0.00%     82.64% # Type of FU issued
system.cpu.iq.FU_type_0::SimdFloatMisc              1      0.00%     82.64% # Type of FU issued
system.cpu.iq.FU_type_0::SimdFloatMult              0      0.00%     82.64% # Type of FU issued
system.cpu.iq.FU_type_0::SimdFloatMultAcc            0      0.00%     82.64% # Type of FU issued
system.cpu.iq.FU_type_0::SimdFloatSqrt              0      0.00%     82.64% # Type of FU issued
system.cpu.iq.FU_type_0::SimdReduceAdd              0      0.00%     82.64% # Type of FU issued
system.cpu.iq.FU_type_0::SimdReduceAlu              0      0.00%     82.64% # Type of FU issued
system.cpu.iq.FU_type_0::SimdReduceCmp              0      0.00%     82.64% # Type of FU issued
system.cpu.iq.FU_type_0::SimdFloatReduceAdd            0      0.00%     82.64% # Type of FU issued
system.cpu.iq.FU_type_0::SimdFloatReduceCmp            0      0.00%     82.64% # Type of FU issued
system.cpu.iq.FU_type_0::SimdAes                    0      0.00%     82.64% # Type of FU issued
system.cpu.iq.FU_type_0::SimdAesMix                 0      0.00%     82.64% # Type of FU issued
system.cpu.iq.FU_type_0::SimdSha1Hash               0      0.00%     82.64% # Type of FU issued
system.cpu.iq.FU_type_0::SimdSha1Hash2              0      0.00%     82.64% # Type of FU issued
system.cpu.iq.FU_type_0::SimdSha256Hash             0      0.00%     82.64% # Type of FU issued
system.cpu.iq.FU_type_0::SimdSha256Hash2            0      0.00%     82.64% # Type of FU issued
system.cpu.iq.FU_type_0::SimdShaSigma2              0      0.00%     82.64% # Type of FU issued
system.cpu.iq.FU_type_0::SimdShaSigma3              0      0.00%     82.64% # Type of FU issued
system.cpu.iq.FU_type_0::SimdPredAlu                0      0.00%     82.64% # Type of FU issued
system.cpu.iq.FU_type_0::MemRead              2802846     13.88%     96.52% # Type of FU issued
system.cpu.iq.FU_type_0::MemWrite              702243      3.48%    100.00% # Type of FU issued
system.cpu.iq.FU_type_0::FloatMemRead               0      0.00%    100.00% # Type of FU issued
system.cpu.iq.FU_type_0::FloatMemWrite              0      0.00%    100.00% # Type of FU issued
system.cpu.iq.FU_type_0::IprAccess                  0      0.00%    100.00% # Type of FU issued
system.cpu.iq.FU_type_0::InstPrefetch               0      0.00%    100.00% # Type of FU issued
system.cpu.iq.FU_type_0::total               20196289                       # Type of FU issued
system.cpu.iq.fp_alu_accesses                       0                       # Number of floating point alu accesses
system.cpu.iq.fp_inst_queue_reads                   0                       # Number of floating instruction queue reads
system.cpu.iq.fp_inst_queue_wakeup_accesses            0                       # Number of floating instruction queue wakeup accesses
system.cpu.iq.fp_inst_queue_writes                  0                       # Number of floating instruction queue writes
system.cpu.iq.fu_busy_cnt                           0                       # FU busy when requested
system.cpu.iq.fu_busy_rate                          0                       # FU busy rate (busy events/executed inst)
system.cpu.iq.fu_full::No_OpClass                   0                       # attempts to use FU when none available
system.cpu.iq.fu_full::IntAlu                       0                       # attempts to use FU when none available
system.cpu.iq.fu_full::IntMult                      0                       # attempts to use FU when none available
system.cpu.iq.fu_full::IntDiv                       0                       # attempts to use FU when none available
system.cpu.iq.fu_full::FloatAdd                     0                       # attempts to use FU when none available
system.cpu.iq.fu_full::FloatCmp                     0                       # attempts to use FU when none available
system.cpu.iq.fu_full::FloatCvt                     0                       # attempts to use FU when none available
system.cpu.iq.fu_full::FloatMult                    0                       # attempts to use FU when none available
system.cpu.iq.fu_full::FloatMultAcc                 0                       # attempts to use FU when none available
system.cpu.iq.fu_full::FloatDiv                     0                       # attempts to use FU when none available
system.cpu.iq.fu_full::FloatMisc                    0                       # attempts to use FU when none available
system.cpu.iq.fu_full::FloatSqrt                    0                       # attempts to use FU when none available
system.cpu.iq.fu_full::SimdAdd                      0                       # attempts to use FU when none available
system.cpu.iq.fu_full::SimdAddAcc                   0                       # attempts to use FU when none available
system.cpu.iq.fu_full::SimdAlu                      0                       # attempts to use FU when none available
system.cpu.iq.fu_full::SimdCmp                      0                       # attempts to use FU when none available
system.cpu.iq.fu_full::SimdCvt                      0                       # attempts to use FU when none available
system.cpu.iq.fu_full::SimdMisc                     0                       # attempts to use FU when none available
system.cpu.iq.fu_full::SimdMult                     0                       # attempts to use FU when none available
system.cpu.iq.fu_full::SimdMultAcc                  0                       # attempts to use FU when none available
system.cpu.iq.fu_full::SimdShift                    0                       # attempts to use FU when none available
system.cpu.iq.fu_full::SimdShiftAcc                 0                       # attempts to use FU when none available
system.cpu.iq.fu_full::SimdDiv                      0                       # attempts to use FU when none available
system.cpu.iq.fu_full::SimdSqrt                     0                       # attempts to use FU when none available
system.cpu.iq.fu_full::SimdFloatAdd                 0                       # attempts to use FU when none available
system.cpu.iq.fu_full::SimdFloatAlu                 0                       # attempts to use FU when none available
system.cpu.iq.fu_full::SimdFloatCmp                 0                       # attempts to use FU when none available
system.cpu.iq.fu_full::SimdFloatCvt                 0                       # attempts to use FU when none available
system.cpu.iq.fu_full::SimdFloatDiv                 0                       # attempts to use FU when none available
system.cpu.iq.fu_full::SimdFloatMisc                0                       # attempts to use FU when none available
system.cpu.iq.fu_full::SimdFloatMult                0                       # attempts to use FU when none available
system.cpu.iq.fu_full::SimdFloatMultAcc             0                       # attempts to use FU when none available
system.cpu.iq.fu_full::SimdFloatSqrt                0                       # attempts to use FU when none available
system.cpu.iq.fu_full::SimdReduceAdd                0                       # attempts to use FU when none available
system.cpu.iq.fu_full::SimdReduceAlu                0                       # attempts to use FU when none available
system.cpu.iq.fu_full::SimdReduceCmp                0                       # attempts to use FU when none available
system.cpu.iq.fu_full::SimdFloatReduceAdd            0                       # attempts to use FU when none available
system.cpu.iq.fu_full::SimdFloatReduceCmp            0                       # attempts to use FU when none available
system.cpu.iq.fu_full::SimdAes                      0                       # attempts to use FU when none available
system.cpu.iq.fu_full::SimdAesMix                   0                       # attempts to use FU when none available
system.cpu.iq.fu_full::SimdSha1Hash                 0                       # attempts to use FU when none available
system.cpu.iq.fu_full::SimdSha1Hash2                0                       # attempts to use FU when none available
system.cpu.iq.fu_full::SimdSha256Hash               0                       # attempts to use FU when none available
system.cpu.iq.fu_full::SimdSha256Hash2              0                       # attempts to use FU when none available
system.cpu.iq.fu_full::SimdShaSigma2                0                       # attempts to use FU when none available
system.cpu.iq.fu_full::SimdShaSigma3                0                       # attempts to use FU when none available
system.cpu.iq.fu_full::SimdPredAlu                  0                       # attempts to use FU when none available
system.cpu.iq.fu_full::MemRead                      0                       # attempts to use FU when none available
system.cpu.iq.fu_full::MemWrite                     0                       # attempts to use FU when none available
system.cpu.iq.fu_full::FloatMemRead                 0                       # attempts to use FU when none available
system.cpu.iq.fu_full::FloatMemWrite                0                       # attempts to use FU when none available
system.cpu.iq.fu_full::IprAccess                    0                       # attempts to use FU when none available
system.cpu.iq.fu_full::InstPrefetch                 0                       # attempts to use FU when none available
system.cpu.iq.int_alu_accesses               20196281                       # Number of integer alu accesses
system.cpu.iq.int_inst_queue_reads           61317336                       # Number of integer instruction queue reads
system.cpu.iq.int_inst_queue_wakeup_accesses     20195642                       # Number of integer instruction queue wakeup accesses
system.cpu.iq.int_inst_queue_writes          20198216                       # Number of integer instruction queue writes
system.cpu.iq.iqInstsAdded                   20196488                       # Number of instructions added to the IQ (excludes non-spec)
system.cpu.iq.iqInstsIssued                  20196289                       # Number of instructions issued
system.cpu.iq.iqNonSpecInstsAdded                  46                       # Number of non-speculative instructions added to the IQ
system.cpu.iq.iqSquashedInstsExamined            1675                       # Number of squashed instructions iterated over during squash; mainly for profiling
system.cpu.iq.iqSquashedOperandsExamined         2618                       # Number of squashed operands that are examined and possibly removed from graph
system.cpu.iq.issued_per_cycle::samples      20924758                       # Number of insts issued each cycle
system.cpu.iq.issued_per_cycle::mean         0.965186                       # Number of insts issued each cycle
system.cpu.iq.issued_per_cycle::stdev        0.729250                       # Number of insts issued each cycle
system.cpu.iq.issued_per_cycle::underflows            0      0.00%      0.00% # Number of insts issued each cycle
system.cpu.iq.issued_per_cycle::0             5645879     26.98%     26.98% # Number of insts issued each cycle
system.cpu.iq.issued_per_cycle::1            10656238     50.93%     77.91% # Number of insts issued each cycle
system.cpu.iq.issued_per_cycle::2             4328090     20.68%     98.59% # Number of insts issued each cycle
system.cpu.iq.issued_per_cycle::3              294333      1.41%    100.00% # Number of insts issued each cycle
system.cpu.iq.issued_per_cycle::4                 218      0.00%    100.00% # Number of insts issued each cycle
system.cpu.iq.issued_per_cycle::5                   0      0.00%    100.00% # Number of insts issued each cycle
system.cpu.iq.issued_per_cycle::6                   0      0.00%    100.00% # Number of insts issued each cycle
system.cpu.iq.issued_per_cycle::7                   0      0.00%    100.00% # Number of insts issued each cycle
system.cpu.iq.issued_per_cycle::8                   0      0.00%    100.00% # Number of insts issued each cycle
system.cpu.iq.issued_per_cycle::overflows            0      0.00%    100.00% # Number of insts issued each cycle
system.cpu.iq.issued_per_cycle::min_value            0                       # Number of insts issued each cycle
system.cpu.iq.issued_per_cycle::max_value            4                       # Number of insts issued each cycle
system.cpu.iq.issued_per_cycle::total        20924758                       # Number of insts issued each cycle
system.cpu.iq.rate                           0.963192                       # Inst issue rate
system.cpu.iq.vec_alu_accesses                      0                       # Number of vector alu accesses
system.cpu.iq.vec_inst_queue_reads                  0                       # Number of vector instruction queue reads
system.cpu.iq.vec_inst_queue_wakeup_accesses            0                       # Number of vector instruction queue wakeup accesses
system.cpu.iq.vec_inst_queue_writes                 0                       # Number of vector instruction queue writes
system.cpu.istage2_mmu.stage2_tlb.accesses            0                       # DTB accesses
system.cpu.istage2_mmu.stage2_tlb.align_faults            0                       # Number of TLB faults due to alignment restrictions
system.cpu.istage2_mmu.stage2_tlb.domain_faults            0                       # Number of TLB faults due to domain restrictions
system.cpu.istage2_mmu.stage2_tlb.flush_entries            0                       # Number of entries that have been flushed from TLB
system.cpu.istage2_mmu.stage2_tlb.flush_tlb            0                       # Number of times complete TLB was flushed
system.cpu.istage2_mmu.stage2_tlb.flush_tlb_asid            0                       # Number of times TLB was flushed by ASID
system.cpu.istage2_mmu.stage2_tlb.flush_tlb_mva            0                       # Number of times TLB was flushed by MVA
system.cpu.istage2_mmu.stage2_tlb.flush_tlb_mva_asid            0                       # Number of times TLB was flushed by MVA & ASID
system.cpu.istage2_mmu.stage2_tlb.hits              0                       # DTB hits
system.cpu.istage2_mmu.stage2_tlb.inst_accesses            0                       # ITB inst accesses
system.cpu.istage2_mmu.stage2_tlb.inst_hits            0                       # ITB inst hits
system.cpu.istage2_mmu.stage2_tlb.inst_misses            0                       # ITB inst misses
system.cpu.istage2_mmu.stage2_tlb.misses            0                       # DTB misses
system.cpu.istage2_mmu.stage2_tlb.perms_faults            0                       # Number of TLB faults due to permissions restrictions
system.cpu.istage2_mmu.stage2_tlb.prefetch_faults            0                       # Number of TLB faults due to prefetch
system.cpu.istage2_mmu.stage2_tlb.read_accesses            0                       # DTB read accesses
system.cpu.istage2_mmu.stage2_tlb.read_hits            0                       # DTB read hits
system.cpu.istage2_mmu.stage2_tlb.read_misses            0                       # DTB read misses
system.cpu.istage2_mmu.stage2_tlb.walker.pwrStateResidencyTicks::UNDEFINED  10484038000                       # Cumulative time (in ticks) in various power states
system.cpu.istage2_mmu.stage2_tlb.walker.walkRequestOrigin_Requested::Data            0                       # Table walker requests started/completed, data/inst
system.cpu.istage2_mmu.stage2_tlb.walker.walkRequestOrigin_Requested::Inst            0                       # Table walker requests started/completed, data/inst
system.cpu.istage2_mmu.stage2_tlb.walker.walkRequestOrigin_Requested::total            0                       # Table walker requests started/completed, data/inst
system.cpu.istage2_mmu.stage2_tlb.walker.walkRequestOrigin_Completed::Data            0                       # Table walker requests started/completed, data/inst
system.cpu.istage2_mmu.stage2_tlb.walker.walkRequestOrigin_Completed::Inst            0                       # Table walker requests started/completed, data/inst
system.cpu.istage2_mmu.stage2_tlb.walker.walkRequestOrigin_Completed::total            0                       # Table walker requests started/completed, data/inst
system.cpu.istage2_mmu.stage2_tlb.walker.walkRequestOrigin::total            0                       # Table walker requests started/completed, data/inst
system.cpu.istage2_mmu.stage2_tlb.walker.walks            0                       # Table walker walks requested
system.cpu.istage2_mmu.stage2_tlb.write_accesses            0                       # DTB write accesses
system.cpu.istage2_mmu.stage2_tlb.write_hits            0                       # DTB write hits
system.cpu.istage2_mmu.stage2_tlb.write_misses            0                       # DTB write misses
system.cpu.itb.accesses                             0                       # DTB accesses
system.cpu.itb.align_faults                         0                       # Number of TLB faults due to alignment restrictions
system.cpu.itb.domain_faults                        0                       # Number of TLB faults due to domain restrictions
system.cpu.itb.flush_entries                        0                       # Number of entries that have been flushed from TLB
system.cpu.itb.flush_tlb                            0                       # Number of times complete TLB was flushed
system.cpu.itb.flush_tlb_asid                       0                       # Number of times TLB was flushed by ASID
system.cpu.itb.flush_tlb_mva                        0                       # Number of times TLB was flushed by MVA
system.cpu.itb.flush_tlb_mva_asid                   0                       # Number of times TLB was flushed by MVA & ASID
system.cpu.itb.hits                                 0                       # DTB hits
system.cpu.itb.inst_accesses                        0                       # ITB inst accesses
system.cpu.itb.inst_hits                            0                       # ITB inst hits
system.cpu.itb.inst_misses                          0                       # ITB inst misses
system.cpu.itb.misses                               0                       # DTB misses
system.cpu.itb.perms_faults                         0                       # Number of TLB faults due to permissions restrictions
system.cpu.itb.prefetch_faults                      0                       # Number of TLB faults due to prefetch
system.cpu.itb.read_accesses                        0                       # DTB read accesses
system.cpu.itb.read_hits                            0                       # DTB read hits
system.cpu.itb.read_misses                          0                       # DTB read misses
system.cpu.itb.walker.pwrStateResidencyTicks::UNDEFINED  10484038000                       # Cumulative time (in ticks) in various power states
system.cpu.itb.walker.walkRequestOrigin_Requested::Data            0                       # Table walker requests started/completed, data/inst
system.cpu.itb.walker.walkRequestOrigin_Requested::Inst            0                       # Table walker requests started/completed, data/inst
system.cpu.itb.walker.walkRequestOrigin_Requested::total            0                       # Table walker requests started/completed, data/inst
system.cpu.itb.walker.walkRequestOrigin_Completed::Data            0                       # Table walker requests started/completed, data/inst
system.cpu.itb.walker.walkRequestOrigin_Completed::Inst            0                       # Table walker requests started/completed, data/inst
system.cpu.itb.walker.walkRequestOrigin_Completed::total            0                       # Table walker requests started/completed, data/inst
system.cpu.itb.walker.walkRequestOrigin::total            0                       # Table walker requests started/completed, data/inst
system.cpu.itb.walker.walks                         0                       # Table walker walks requested
system.cpu.itb.write_accesses                       0                       # DTB write accesses
system.cpu.itb.write_hits                           0                       # DTB write hits
system.cpu.itb.write_misses                         0                       # DTB write misses
system.cpu.memDep0.conflictingLoads            152011                       # Number of conflicting loads.
system.cpu.memDep0.conflictingStores               51                       # Number of conflicting stores.
system.cpu.memDep0.insertedLoads              2802880                       # Number of loads inserted to the mem dependence unit.
system.cpu.memDep0.insertedStores              702257                       # Number of stores inserted to the mem dependence unit.
system.cpu.misc_regfile_reads                 3505004                       # number of misc regfile reads
[...]
system.mem_ctrls.wrQLenPdf::19                      0                       # What write queue length does an incoming req see
system.mem_ctrls.wrQLenPdf::20                      0                       # What write queue length does an incoming req see
system.mem_ctrls.wrQLenPdf::21                      0                       # What write queue length does an incoming req see
system.mem_ctrls.wrQLenPdf::22                      0                       # What write queue length does an incoming req see
system.mem_ctrls.wrQLenPdf::23                      0                       # What write queue length does an incoming req see
system.mem_ctrls.wrQLenPdf::24                      0                       # What write queue length does an incoming req see
system.mem_ctrls.wrQLenPdf::25                      0                       # What write queue length does an incoming req see
system.mem_ctrls.wrQLenPdf::26                      0                       # What write queue length does an incoming req see
system.mem_ctrls.wrQLenPdf::27                      0                       # What write queue length does an incoming req see
system.mem_ctrls.wrQLenPdf::28                      0                       # What write queue length does an incoming req see
system.mem_ctrls.wrQLenPdf::29                      0                       # What write queue length does an incoming req see
system.mem_ctrls.wrQLenPdf::30                      0                       # What write queue length does an incoming req see
system.mem_ctrls.wrQLenPdf::31                      0                       # What write queue length does an incoming req see
system.mem_ctrls.wrQLenPdf::32                      0                       # What write queue length does an incoming req see
system.mem_ctrls.wrQLenPdf::33                      0                       # What write queue length does an incoming req see
system.mem_ctrls.wrQLenPdf::34                      0                       # What write queue length does an incoming req see
system.mem_ctrls.wrQLenPdf::35                      0                       # What write queue length does an incoming req see
system.mem_ctrls.wrQLenPdf::36                      0                       # What write queue length does an incoming req see
system.mem_ctrls.wrQLenPdf::37                      0                       # What write queue length does an incoming req see
system.mem_ctrls.wrQLenPdf::38                      0                       # What write queue length does an incoming req see
system.mem_ctrls.wrQLenPdf::39                      0                       # What write queue length does an incoming req see
system.mem_ctrls.wrQLenPdf::40                      0                       # What write queue length does an incoming req see
system.mem_ctrls.wrQLenPdf::41                      0                       # What write queue length does an incoming req see
system.mem_ctrls.wrQLenPdf::42                      0                       # What write queue length does an incoming req see
system.mem_ctrls.wrQLenPdf::43                      0                       # What write queue length does an incoming req see
system.mem_ctrls.wrQLenPdf::44                      0                       # What write queue length does an incoming req see
system.mem_ctrls.wrQLenPdf::45                      0                       # What write queue length does an incoming req see
system.mem_ctrls.wrQLenPdf::46                      0                       # What write queue length does an incoming req see
system.mem_ctrls.wrQLenPdf::47                      0                       # What write queue length does an incoming req see
system.mem_ctrls.wrQLenPdf::48                      0                       # What write queue length does an incoming req see
system.mem_ctrls.wrQLenPdf::49                      0                       # What write queue length does an incoming req see
system.mem_ctrls.wrQLenPdf::50                      0                       # What write queue length does an incoming req see
system.mem_ctrls.wrQLenPdf::51                      0                       # What write queue length does an incoming req see
system.mem_ctrls.wrQLenPdf::52                      0                       # What write queue length does an incoming req see
system.mem_ctrls.wrQLenPdf::53                      0                       # What write queue length does an incoming req see
system.mem_ctrls.wrQLenPdf::54                      0                       # What write queue length does an incoming req see
system.mem_ctrls.wrQLenPdf::55                      0                       # What write queue length does an incoming req see
system.mem_ctrls.wrQLenPdf::56                      0                       # What write queue length does an incoming req see
system.mem_ctrls.wrQLenPdf::57                      0                       # What write queue length does an incoming req see
system.mem_ctrls.wrQLenPdf::58                      0                       # What write queue length does an incoming req see
system.mem_ctrls.wrQLenPdf::59                      0                       # What write queue length does an incoming req see
system.mem_ctrls.wrQLenPdf::60                      0                       # What write queue length does an incoming req see
system.mem_ctrls.wrQLenPdf::61                      0                       # What write queue length does an incoming req see
system.mem_ctrls.wrQLenPdf::62                      0                       # What write queue length does an incoming req see
system.mem_ctrls.wrQLenPdf::63                      0                       # What write queue length does an incoming req see
system.mem_ctrls.writeBursts                        0                       # Number of DRAM write bursts, including those merged in the write queue
system.mem_ctrls.writePktSize::0                    0                       # Write request sizes (log2)
system.mem_ctrls.writePktSize::1                    0                       # Write request sizes (log2)
system.mem_ctrls.writePktSize::2                    0                       # Write request sizes (log2)
system.mem_ctrls.writePktSize::3                    0                       # Write request sizes (log2)
system.mem_ctrls.writePktSize::4                    0                       # Write request sizes (log2)
system.mem_ctrls.writePktSize::5                    0                       # Write request sizes (log2)
system.mem_ctrls.writePktSize::6                    0                       # Write request sizes (log2)
system.mem_ctrls.writeReqs                          0                       # Number of write requests accepted
system.mem_ctrls.writeRowHitRate                  nan                       # Row buffer hit rate for writes
system.mem_ctrls.writeRowHits                       0                       # Number of row buffer hits during writes
system.mem_ctrls_0.actBackEnergy            867484710                       # Energy for active background per rank (pJ)
system.mem_ctrls_0.actEnergy                 10831380                       # Energy for activate commands per rank (pJ)
system.mem_ctrls_0.actPowerDownEnergy               0                       # Energy for active power-down per rank (pJ)
system.mem_ctrls_0.averagePower            482.044552                       # Core power per rank (mW)
system.mem_ctrls_0.memoryStateTime::IDLE   8550088250                       # Time in different power states
system.mem_ctrls_0.memoryStateTime::REF     349960000                       # Time in different power states
system.mem_ctrls_0.memoryStateTime::SREF            0                       # Time in different power states
system.mem_ctrls_0.memoryStateTime::PRE_PDN            0                       # Time in different power states
system.mem_ctrls_0.memoryStateTime::ACT    1583989750                       # Time in different power states
system.mem_ctrls_0.memoryStateTime::ACT_PDN            0                       # Time in different power states
system.mem_ctrls_0.preBackEnergy           3295357440                       # Energy for precharge background per rank (pJ)
system.mem_ctrls_0.preEnergy                  5741835                       # Energy for precharge commands per rank (pJ)
system.mem_ctrls_0.prePowerDownEnergy               0                       # Energy for precharge power-down per rank (pJ)
system.mem_ctrls_0.readEnergy                47052600                       # Energy for read commands per rank (pJ)
system.mem_ctrls_0.refreshEnergy         827305440.000000                       # Energy for refresh commands per rank (pJ)
system.mem_ctrls_0.selfRefreshEnergy                0                       # Energy for self refresh per rank (pJ)
system.mem_ctrls_0.totalEnergy             5053773405                       # Total energy per rank (pJ)
system.mem_ctrls_0.totalIdleTime                    0                       # Total Idle time Per DRAM Rank
system.mem_ctrls_0.writeEnergy                      0                       # Energy for write commands per rank (pJ)
system.mem_ctrls_1.actBackEnergy            882162780                       # Energy for active background per rank (pJ)
system.mem_ctrls_1.actEnergy                 10974180                       # Energy for activate commands per rank (pJ)
system.mem_ctrls_1.actPowerDownEnergy               0                       # Energy for active power-down per rank (pJ)
system.mem_ctrls_1.averagePower            482.292963                       # Core power per rank (mW)
system.mem_ctrls_1.memoryStateTime::IDLE   8517640000                       # Time in different power states
system.mem_ctrls_1.memoryStateTime::REF     349960000                       # Time in different power states
system.mem_ctrls_1.memoryStateTime::SREF            0                       # Time in different power states
system.mem_ctrls_1.memoryStateTime::PRE_PDN            0                       # Time in different power states
system.mem_ctrls_1.memoryStateTime::ACT    1616438000                       # Time in different power states
system.mem_ctrls_1.memoryStateTime::ACT_PDN            0                       # Time in different power states
system.mem_ctrls_1.preBackEnergy           3282996960                       # Energy for precharge background per rank (pJ)
system.mem_ctrls_1.preEnergy                  5821530                       # Energy for precharge commands per rank (pJ)
system.mem_ctrls_1.prePowerDownEnergy               0                       # Energy for precharge power-down per rank (pJ)
system.mem_ctrls_1.readEnergy                47116860                       # Energy for read commands per rank (pJ)
system.mem_ctrls_1.refreshEnergy         827305440.000000                       # Energy for refresh commands per rank (pJ)
system.mem_ctrls_1.selfRefreshEnergy                0                       # Energy for self refresh per rank (pJ)
system.mem_ctrls_1.totalEnergy             5056377750                       # Total energy per rank (pJ)
system.mem_ctrls_1.totalIdleTime                    0                       # Total Idle time Per DRAM Rank
system.mem_ctrls_1.writeEnergy                      0                       # Energy for write commands per rank (pJ)
system.membus.pkt_count_system.l2.mem_side::system.mem_ctrls.port        26377                       # Packet count per connected master and slave (bytes)
system.membus.pkt_count::total                  26377                       # Packet count per connected master and slave (bytes)
system.membus.pkt_size_system.l2.mem_side::system.mem_ctrls.port       844032                       # Cumulative packet size per connected master and slave (bytes)
system.membus.pkt_size::total                  844032                       # Cumulative packet size per connected master and slave (bytes)
system.membus.pwrStateResidencyTicks::UNDEFINED  10484038000                       # Cumulative time (in ticks) in various power states
system.membus.reqLayer0.occupancy            17428500                       # Layer occupancy (ticks)
system.membus.reqLayer0.utilization               0.2                       # Layer utilization (%)
system.membus.respLayer1.occupancy           70434000                       # Layer occupancy (ticks)
system.membus.respLayer1.utilization              0.7                       # Layer utilization (%)
system.membus.snoopTraffic                          0                       # Total snoop traffic (bytes)
system.membus.snoop_fanout::samples             13189                       # Request fanout histogram
system.membus.snoop_fanout::mean                    0                       # Request fanout histogram
system.membus.snoop_fanout::stdev                   0                       # Request fanout histogram
system.membus.snoop_fanout::underflows              0      0.00%      0.00% # Request fanout histogram
system.membus.snoop_fanout::0                   13189    100.00%    100.00% # Request fanout histogram
system.membus.snoop_fanout::1                       0      0.00%    100.00% # Request fanout histogram
system.membus.snoop_fanout::overflows               0      0.00%    100.00% # Request fanout histogram
system.membus.snoop_fanout::min_value               0                       # Request fanout histogram
system.membus.snoop_fanout::max_value               0                       # Request fanout histogram
system.membus.snoop_fanout::total               13189                       # Request fanout histogram
system.membus.snoop_filter.hit_multi_requests            0                       # Number of requests hitting in the snoop filter with multiple (>1) holders of the requested data.
system.membus.snoop_filter.hit_multi_snoops            0                       # Number of snoops hitting in the snoop filter with multiple (>1) holders of the requested data.
system.membus.snoop_filter.hit_single_requests            0                       # Number of requests hitting in the snoop filter with a single holder of the requested data.
system.membus.snoop_filter.hit_single_snoops            0                       # Number of snoops hitting in the snoop filter with a single holder of the requested data.
system.membus.snoop_filter.tot_requests         13189                       # Total number of requests made to the snoop filter.
system.membus.snoop_filter.tot_snoops               0                       # Total number of snoops made to the snoop filter.
system.membus.snoops                                0                       # Total snoops (count)
system.membus.trans_dist::ReadResp                633                       # Transaction distribution
system.membus.trans_dist::ReadExReq             12555                       # Transaction distribution
system.membus.trans_dist::ReadExResp            12555                       # Transaction distribution
system.membus.trans_dist::ReadSharedReq           634                       # Transaction distribution
system.tol2bus.pkt_count_system.cpu.icache.mem_side::system.l2.cpu_side         1314                       # Packet count per connected master and slave (bytes)
system.tol2bus.pkt_count_system.cpu.dcache.mem_side::system.l2.cpu_side        93425                       # Packet count per connected master and slave (bytes)
system.tol2bus.pkt_count::total                 94739                       # Packet count per connected master and slave (bytes)
system.tol2bus.pkt_size_system.cpu.icache.mem_side::system.l2.cpu_side        47296                       # Cumulative packet size per connected master and slave (bytes)
system.tol2bus.pkt_size_system.cpu.dcache.mem_side::system.l2.cpu_side      3959488                       # Cumulative packet size per connected master and slave (bytes)
system.tol2bus.pkt_size::total                4006784                       # Cumulative packet size per connected master and slave (bytes)
system.tol2bus.pwrStateResidencyTicks::UNDEFINED  10484038000                       # Cumulative time (in ticks) in various power states
system.tol2bus.reqLayer0.occupancy           61891500                       # Layer occupancy (ticks)
system.tol2bus.reqLayer0.utilization              0.6                       # Layer utilization (%)
system.tol2bus.respLayer0.occupancy            859500                       # Layer occupancy (ticks)
system.tol2bus.respLayer0.utilization             0.0                       # Layer utilization (%)
system.tol2bus.respLayer1.occupancy          47227494                       # Layer occupancy (ticks)
system.tol2bus.respLayer1.utilization             0.5                       # Layer utilization (%)
system.tol2bus.snoopTraffic                         0                       # Total snoop traffic (bytes)
system.tol2bus.snoop_fanout::samples            32058                       # Request fanout histogram
system.tol2bus.snoop_fanout::mean            0.001622                       # Request fanout histogram
system.tol2bus.snoop_fanout::stdev           0.040243                       # Request fanout histogram
system.tol2bus.snoop_fanout::underflows             0      0.00%      0.00% # Request fanout histogram
system.tol2bus.snoop_fanout::0                  32006     99.84%     99.84% # Request fanout histogram
system.tol2bus.snoop_fanout::1                     52      0.16%    100.00% # Request fanout histogram
system.tol2bus.snoop_fanout::2                      0      0.00%    100.00% # Request fanout histogram
system.tol2bus.snoop_fanout::overflows              0      0.00%    100.00% # Request fanout histogram
system.tol2bus.snoop_fanout::min_value              0                       # Request fanout histogram
system.tol2bus.snoop_fanout::max_value              1                       # Request fanout histogram
system.tol2bus.snoop_fanout::total              32058                       # Request fanout histogram
system.tol2bus.snoop_filter.hit_multi_requests           35                       # Number of requests hitting in the snoop filter with multiple (>1) holders of the requested data.
system.tol2bus.snoop_filter.hit_multi_snoops            0                       # Number of snoops hitting in the snoop filter with multiple (>1) holders of the requested data.
system.tol2bus.snoop_filter.hit_single_requests        30642                       # Number of requests hitting in the snoop filter with a single holder of the requested data.
system.tol2bus.snoop_filter.hit_single_snoops            0                       # Number of snoops hitting in the snoop filter with a single holder of the requested data.
system.tol2bus.snoop_filter.tot_requests        62683                       # Total number of requests made to the snoop filter.
system.tol2bus.snoop_filter.tot_snoops              0                       # Total number of snoops made to the snoop filter.
system.tol2bus.snoops                               0                       # Total snoops (count)
system.tol2bus.trans_dist::ReadResp             19486                       # Transaction distribution
system.tol2bus.trans_dist::WritebackDirty        30384                       # Transaction distribution
system.tol2bus.trans_dist::WritebackClean          166                       # Transaction distribution
system.tol2bus.trans_dist::CleanEvict              75                       # Transaction distribution
system.tol2bus.trans_dist::ReadExReq            12570                       # Transaction distribution
system.tol2bus.trans_dist::ReadExResp           12570                       # Transaction distribution
system.tol2bus.trans_dist::ReadCleanReq           575                       # Transaction distribution
system.tol2bus.trans_dist::ReadSharedReq        18913                       # Transaction distribution
system.voltage_domain.voltage                       1                       # Voltage in Volts

---------- End Simulation Statistics   ----------
